@<TRIPOS>MOLECULE
FF-NUCLEIC-OL24
   500    524     16 0 1
SMALL
USER_CHARGES
@<TRIPOS>ATOM
     1 P          2.314489     1.776673    -0.478436 P        1 DA           1.165900
     2 OP1        1.933410     3.073374    -1.081549 O2       1 DA          -0.776100
     3 OP2        3.156547     0.871841    -1.292450 O2       1 DA          -0.776100
     4 O5'        2.994369     2.142475     0.922974 OS       1 DA          -0.495400
     5 C5'        2.156035     2.551837     2.019887 CJ       1 DA          -0.006900
     6 H5'        1.452687     1.753841     2.257803 H1       1 DA           0.075400
     7 H5''       1.604968     3.450028     1.741178 H1       1 DA           0.075400
     8 C4'        3.008252     2.847921     3.243186 CT       1 DA           0.162900
     9 H4'        2.447118     3.477373     3.933851 H1       1 DA           0.117600
    10 O4'        3.228121     1.605168     3.977231 OS       1 DA          -0.369100
    11 C1'        4.558614     1.150950     3.777548 CT       1 DA           0.043100
    12 H1'        5.072002     1.095281     4.737461 H2       1 DA           0.183800
    13 N9         4.538887    -0.297039     3.315663 N*       1 DA          -0.026800
    14 C8         4.336753    -0.846471     2.077048 C2       1 DA           0.160700
    15 H8         4.152405    -0.207228     1.226292 H5       1 DA           0.187700
    16 N7         4.452865    -2.140973     2.049081 NB       1 DA          -0.617500
    17 C5         4.754063    -2.480044     3.363010 CB       1 DA           0.072500
    18 C6         4.998001    -3.708197     3.989216 CA       1 DA           0.689700
    19 N6         4.976786    -4.883494     3.345922 N2       1 DA          -0.912300
    20 H61        5.160722    -5.738815     3.850595 H        1 DA           0.416700
    21 H62        4.776859    -4.914033     2.356379 H        1 DA           0.416700
    22 N1         5.265303    -3.689337     5.302150 NC       1 DA          -0.762400
    23 C2         5.284983    -2.519871     5.935286 CQ       1 DA           0.571600
    24 H2         5.498276    -2.482153     6.993342 H5       1 DA           0.059800
    25 N3         5.072691    -1.308506     5.455779 NC       1 DA          -0.741700
    26 C4         4.806144    -1.356352     4.133219 CB       1 DA           0.380000
    27 C3'        4.415606     3.377827     2.961306 C7       1 DA           0.071300
    28 H3'        4.412072     3.941489     2.028369 H1       1 DA           0.098500
    29 C2'        5.230443     2.095696     2.779425 CT       1 DA          -0.085400
    30 H2'        5.668211     2.081313     1.781301 HC       1 DA           0.071800
    31 H2''       6.025106     2.060820     3.524673 HC       1 DA           0.071800
    32 O3'        5.029898     4.128649     3.998279 OS       1 DA          -0.523200
    33 P          2.314489     1.776673    -0.478436 P        2 DA3          1.165900
    34 OP1        1.933410     3.073374    -1.081549 O2       2 DA3         -0.776100
    35 OP2        3.156547     0.871841    -1.292450 O2       2 DA3         -0.776100
    36 O5'        2.994369     2.142475     0.922974 OS       2 DA3         -0.495400
    37 C5'        2.156035     2.551837     2.019887 CJ       2 DA3         -0.006900
    38 H5'        1.452687     1.753841     2.257803 H1       2 DA3          0.075400
    39 H5''       1.604968     3.450028     1.741178 H1       2 DA3          0.075400
    40 C4'        3.008252     2.847921     3.243186 CT       2 DA3          0.162900
    41 H4'        2.447118     3.477373     3.933851 H1       2 DA3          0.117600
    42 O4'        3.228121     1.605168     3.977231 OS       2 DA3         -0.369100
    43 C1'        4.558614     1.150950     3.777548 CT       2 DA3          0.043100
    44 H1'        5.072002     1.095281     4.737461 H2       2 DA3          0.183800
    45 N9         4.538887    -0.297039     3.315663 N*       2 DA3         -0.026800
    46 C8         4.336753    -0.846471     2.077048 C2       2 DA3          0.160700
    47 H8         4.152405    -0.207228     1.226292 H5       2 DA3          0.187700
    48 N7         4.452865    -2.140973     2.049081 NB       2 DA3         -0.617500
    49 C5         4.754063    -2.480044     3.363010 CB       2 DA3          0.072500
    50 C6         4.998001    -3.708197     3.989216 CA       2 DA3          0.689700
    51 N6         4.976786    -4.883494     3.345922 N2       2 DA3         -0.912300
    52 H61        5.160722    -5.738815     3.850595 H        2 DA3          0.416700
    53 H62        4.776859    -4.914033     2.356379 H        2 DA3          0.416700
    54 N1         5.265303    -3.689337     5.302150 NC       2 DA3         -0.762400
    55 C2         5.284983    -2.519871     5.935286 CQ       2 DA3          0.571600
    56 H2         5.498276    -2.482153     6.993342 H5       2 DA3          0.059800
    57 N3         5.072691    -1.308506     5.455779 NC       2 DA3         -0.741700
    58 C4         4.806144    -1.356352     4.133219 CB       2 DA3          0.380000
    59 C3'        4.415606     3.377827     2.961306 C7       2 DA3          0.071300
    60 H3'        4.412072     3.941489     2.028369 H1       2 DA3          0.098500
    61 C2'        5.230443     2.095696     2.779425 CT       2 DA3         -0.085400
    62 H2'        5.668211     2.081313     1.781301 HC       2 DA3          0.071800
    63 H2''       6.025106     2.060820     3.524673 HC       2 DA3          0.071800
    64 O3'        5.029898     4.128649     3.998279 OH       2 DA3         -0.654900
    65 HO3'       5.911984     4.450161     3.797897 HO       2 DA3          0.439600
    66 HO5'       1.866026     1.500000    -0.000001 HO       3 DA5          0.442200
    67 O5'        1.958076     1.721055     0.929655 OH       3 DA5         -0.631800
    68 C5'        0.788438     2.110876     1.673689 CJ       3 DA5         -0.006900
    69 H5'        0.059609     1.300555     1.656698 H1       3 DA5          0.075400
    70 H5''       0.350939     3.001862     1.223312 H1       3 DA5          0.075400
    71 C4'        1.165852     2.413326     3.114689 CT       3 DA5          0.162900
    72 H4'        0.391898     3.029897     3.571783 H1       3 DA5          0.117600
    73 O4'        1.142231     1.170002     3.879666 OS       3 DA5         -0.369100
    74 C1'        2.468206     0.737940     4.147081 CT       3 DA5          0.043100
    75 H1'        2.623235     0.684861     5.224694 H2       3 DA5          0.183800
    76 N9         2.631883    -0.707510     3.706304 N*       3 DA5         -0.026800
    77 C8         2.874744    -1.252950     2.473254 C2       3 DA5          0.160700
    78 H8         2.981762    -0.611824     1.610754 H5       3 DA5          0.187700
    79 N7         3.015090    -2.545282     2.486686 NB       3 DA5         -0.617500
    80 C5         2.854438    -2.887092     3.824392 CB       3 DA5          0.072500
    81 C6         2.890064    -4.114821     4.496265 CA       3 DA5          0.689700
    82 N6         3.109811    -5.286601     3.884511 N2       3 DA5         -0.912300
    83 H61        3.124377    -6.141797     4.421657 H        3 DA5          0.416700
    84 H62        3.260876    -5.314613     2.886265 H        3 DA5          0.416700
    85 N1         2.691907    -4.099278     5.821441 NC       3 DA5         -0.762400
    86 C2         2.474289    -2.933294     6.423125 CQ       3 DA5          0.571600
    87 H2         2.312233    -2.898286     7.490323 H5       3 DA5          0.059800
    88 N3         2.418510    -1.722694     5.899928 NC       3 DA5         -0.741700
    89 C4         2.621154    -1.767152     4.565964 CB       3 DA5          0.380000
    90 C3'        2.575663     2.966930     3.331153 C7       3 DA5          0.071300
    91 H3'        2.881938     3.535803     2.453270 H1       3 DA5          0.098500
    92 C2'        3.424932     1.698850     3.438932 CT       3 DA5         -0.085400
    93 H2'        4.177814     1.697080     2.650727 HC       3 DA5          0.071800
    94 H2''       3.917296     1.672219     4.411027 HC       3 DA5          0.071800
    95 O3'        2.785632     3.721376     4.515688 OS       3 DA5         -0.523200
    96 HO5'       1.866026     1.500000    -0.000001 HO       4 DAN          0.442200
    97 O5'        1.958076     1.721055     0.929655 OH       4 DAN         -0.631800
    98 C5'        0.788438     2.110876     1.673689 CJ       4 DAN         -0.006900
    99 H5'        0.059609     1.300555     1.656698 H1       4 DAN          0.075400
   100 H5''       0.350939     3.001862     1.223312 H1       4 DAN          0.075400
   101 C4'        1.165852     2.413326     3.114689 CT       4 DAN          0.162900
   102 H4'        0.391898     3.029897     3.571783 H1       4 DAN          0.117600
   103 O4'        1.142231     1.170002     3.879666 OS       4 DAN         -0.369100
   104 C1'        2.468206     0.737940     4.147081 CT       4 DAN          0.043100
   105 H1'        2.623235     0.684861     5.224694 H2       4 DAN          0.183800
   106 N9         2.631883    -0.707510     3.706304 N*       4 DAN         -0.026800
   107 C8         2.874744    -1.252950     2.473254 C2       4 DAN          0.160700
   108 H8         2.981762    -0.611824     1.610754 H5       4 DAN          0.187700
   109 N7         3.015090    -2.545282     2.486686 NB       4 DAN         -0.617500
   110 C5         2.854438    -2.887092     3.824392 CB       4 DAN          0.072500
   111 C6         2.890064    -4.114821     4.496265 CA       4 DAN          0.689700
   112 N6         3.109811    -5.286601     3.884511 N2       4 DAN         -0.912300
   113 H61        3.124377    -6.141797     4.421657 H        4 DAN          0.416700
   114 H62        3.260876    -5.314613     2.886265 H        4 DAN          0.416700
   115 N1         2.691907    -4.099278     5.821441 NC       4 DAN         -0.762400
   116 C2         2.474289    -2.933294     6.423125 CQ       4 DAN          0.571600
   117 H2         2.312233    -2.898286     7.490323 H5       4 DAN          0.059800
   118 N3         2.418510    -1.722694     5.899928 NC       4 DAN         -0.741700
   119 C4         2.621154    -1.767152     4.565964 CB       4 DAN          0.380000
   120 C3'        2.575663     2.966930     3.331153 C7       4 DAN          0.071300
   121 H3'        2.881938     3.535803     2.453270 H1       4 DAN          0.098500
   122 C2'        3.424932     1.698850     3.438932 CT       4 DAN         -0.085400
   123 H2'        4.177814     1.697080     2.650727 HC       4 DAN          0.071800
   124 H2''       3.917296     1.672219     4.411027 HC       4 DAN          0.071800
   125 O3'        2.785632     3.721376     4.515688 OH       4 DAN         -0.654900
   126 HO3'       3.677544     4.057879     4.629083 HO       4 DAN          0.439600
   127 P          2.314489     1.776673    -0.478436 P        5 DC           1.165900
   128 OP1        1.933410     3.073374    -1.081549 O2       5 DC          -0.776100
   129 OP2        3.156547     0.871841    -1.292450 O2       5 DC          -0.776100
   130 O5'        2.994369     2.142475     0.922974 OS       5 DC          -0.495400
   131 C5'        2.156035     2.551837     2.019887 CJ       5 DC          -0.006900
   132 H5'        1.452687     1.753841     2.257803 H1       5 DC           0.075400
   133 H5''       1.604968     3.450028     1.741178 H1       5 DC           0.075400
   134 C4'        3.008252     2.847921     3.243186 CT       5 DC           0.162900
   135 H4'        2.447118     3.477373     3.933851 H1       5 DC           0.117600
   136 O4'        3.228121     1.605168     3.977231 OS       5 DC          -0.369100
   137 C1'        4.558614     1.150950     3.777548 CT       5 DC          -0.011600
   138 H1'        5.072002     1.095281     4.737461 H2       5 DC           0.196300
   139 N1         4.500572    -0.267961     3.326525 N*       5 DC          -0.033900
   140 C6         4.258199    -0.582249     2.025726 C1       5 DC          -0.018300
   141 H6         4.103961     0.202767     1.300219 H4       5 DC           0.229300
   142 C5         4.205657    -1.878084     1.616273 C1       5 DC          -0.522200
   143 H5         4.010254    -2.111434     0.569628 HA       5 DC           0.186300
   144 C4         4.416202    -2.880835     2.613801 CA       5 DC           0.843900
   145 N4         4.378897    -4.158915     2.285902 N2       5 DC          -0.977300
   146 H41        4.532463    -4.836389     3.019078 H        5 DC           0.431400
   147 H42        4.201767    -4.434444     1.330491 H        5 DC           0.431400
   148 N3         4.652648    -2.564458     3.883801 NC       5 DC          -0.774800
   149 C2         4.701238    -1.262314     4.273234 C        5 DC           0.795900
   150 O2         4.918963    -0.927584     5.447181 O        5 DC          -0.654800
   151 C3'        4.415606     3.377827     2.961306 C7       5 DC           0.071300
   152 H3'        4.412072     3.941489     2.028369 H1       5 DC           0.098500
   153 C2'        5.230443     2.095696     2.779425 CT       5 DC          -0.085400
   154 H2'        5.668211     2.081313     1.781301 HC       5 DC           0.071800
   155 H2''       6.025106     2.060820     3.524673 HC       5 DC           0.071800
   156 O3'        5.029898     4.128649     3.998279 OS       5 DC          -0.523200
   157 P          2.314489     1.776673    -0.478436 P        6 DC3          1.165900
   158 OP1        1.933410     3.073374    -1.081549 O2       6 DC3         -0.776100
   159 OP2        3.156547     0.871841    -1.292450 O2       6 DC3         -0.776100
   160 O5'        2.994369     2.142475     0.922974 OS       6 DC3         -0.495400
   161 C5'        2.156035     2.551837     2.019887 CJ       6 DC3         -0.006900
   162 H5'        1.452687     1.753841     2.257803 H1       6 DC3          0.075400
   163 H5''       1.604968     3.450028     1.741178 H1       6 DC3          0.075400
   164 C4'        3.008252     2.847921     3.243186 CT       6 DC3          0.162900
   165 H4'        2.447118     3.477373     3.933851 H1       6 DC3          0.117600
   166 O4'        3.228121     1.605168     3.977231 OS       6 DC3         -0.369100
   167 C1'        4.558614     1.150950     3.777548 CT       6 DC3         -0.011600
   168 H1'        5.072002     1.095281     4.737461 H2       6 DC3          0.196300
   169 N1         4.500572    -0.267961     3.326525 N*       6 DC3         -0.033900
   170 C6         4.258199    -0.582249     2.025726 C1       6 DC3         -0.018300
   171 H6         4.103961     0.202767     1.300219 H4       6 DC3          0.229300
   172 C5         4.205657    -1.878084     1.616273 C1       6 DC3         -0.522200
   173 H5         4.010254    -2.111434     0.569628 HA       6 DC3          0.186300
   174 C4         4.416202    -2.880835     2.613801 CA       6 DC3          0.843900
   175 N4         4.378897    -4.158915     2.285902 N2       6 DC3         -0.977300
   176 H41        4.532463    -4.836389     3.019078 H        6 DC3          0.431400
   177 H42        4.201767    -4.434444     1.330491 H        6 DC3          0.431400
   178 N3         4.652648    -2.564458     3.883801 NC       6 DC3         -0.774800
   179 C2         4.701238    -1.262314     4.273234 C        6 DC3          0.795900
   180 O2         4.918963    -0.927584     5.447181 O        6 DC3         -0.654800
   181 C3'        4.415606     3.377827     2.961306 C7       6 DC3          0.071300
   182 H3'        4.412072     3.941489     2.028369 H1       6 DC3          0.098500
   183 C2'        5.230443     2.095696     2.779425 CT       6 DC3         -0.085400
   184 H2'        5.668211     2.081313     1.781301 HC       6 DC3          0.071800
   185 H2''       6.025106     2.060820     3.524673 HC       6 DC3          0.071800
   186 O3'        5.029898     4.128649     3.998279 OH       6 DC3         -0.654900
   187 HO3'       5.911984     4.450161     3.797897 HO       6 DC3          0.439600
   188 HO5'       1.866026     1.500000    -0.000001 HO       7 DC5          0.442200
   189 O5'        1.958076     1.721055     0.929655 OH       7 DC5         -0.631800
   190 C5'        0.788438     2.110876     1.673689 CJ       7 DC5         -0.006900
   191 H5'        0.059609     1.300555     1.656698 H1       7 DC5          0.075400
   192 H5''       0.350939     3.001862     1.223312 H1       7 DC5          0.075400
   193 C4'        1.165852     2.413322     3.114690 CT       7 DC5          0.162900
   194 H4'        0.391898     3.029893     3.571785 H1       7 DC5          0.117600
   195 O4'        1.142228     1.169997     3.879664 OS       7 DC5         -0.369100
   196 C1'        2.468203     0.737932     4.147079 CT       7 DC5         -0.011600
   197 H1'        2.623230     0.684850     5.224692 H2       7 DC5          0.196300
   198 N1         2.591677    -0.679109     3.703402 N*       7 DC5         -0.033900
   199 C6         2.814056    -0.989712     2.398154 C1       7 DC5         -0.018300
   200 H6         2.904093    -0.203076     1.663650 H4       7 DC5          0.229300
   201 C5         2.926421    -2.283845     1.995422 C1       7 DC5         -0.522200
   202 H5         3.104661    -2.514239     0.945065 HA       7 DC5          0.186300
   203 C4         2.799912    -3.288859     3.004800 CA       7 DC5          0.843900
   204 N4         2.898406    -4.565468     2.683913 N2       7 DC5         -0.977300
   205 H41        2.803314    -5.244631     3.425395 H        7 DC5          0.431400
   206 H42        3.063322    -4.838270     1.725539 H        7 DC5          0.431400
   207 N3         2.582461    -2.976084     4.279079 NC       7 DC5         -0.774800
   208 C2         2.473124    -1.675589     4.661648 C        7 DC5          0.795900
   209 O2         2.270624    -1.344208     5.839264 O        7 DC5         -0.654800
   210 C3'        2.575663     2.966923     3.331156 C7       7 DC5          0.071300
   211 H3'        2.881940     3.535798     2.453275 H1       7 DC5          0.098500
   212 C2'        3.424930     1.698842     3.438933 CT       7 DC5         -0.085400
   213 H2'        4.177812     1.697074     2.650729 HC       7 DC5          0.071800
   214 H2''       3.917293     1.672208     4.411028 HC       7 DC5          0.071800
   215 O3'        2.785632     3.721367     4.515693 OS       7 DC5         -0.523200
   216 HO5'       1.866026     1.500000    -0.000001 HO       8 DCN          0.442200
   217 O5'        1.958076     1.721055     0.929655 OH       8 DCN         -0.631800
   218 C5'        0.788438     2.110876     1.673689 CJ       8 DCN         -0.006900
   219 H5'        0.059609     1.300555     1.656698 H1       8 DCN          0.075400
   220 H5''       0.350939     3.001862     1.223312 H1       8 DCN          0.075400
   221 C4'        1.165852     2.413322     3.114690 CT       8 DCN          0.162900
   222 H4'        0.391898     3.029893     3.571785 H1       8 DCN          0.117600
   223 O4'        1.142228     1.169997     3.879664 OS       8 DCN         -0.369100
   224 C1'        2.468203     0.737932     4.147079 CT       8 DCN         -0.011600
   225 H1'        2.623230     0.684850     5.224692 H2       8 DCN          0.196300
   226 N1         2.591677    -0.679109     3.703402 N*       8 DCN         -0.033900
   227 C6         2.814056    -0.989712     2.398154 C1       8 DCN         -0.018300
   228 H6         2.904093    -0.203076     1.663650 H4       8 DCN          0.229300
   229 C5         2.926421    -2.283845     1.995422 C1       8 DCN         -0.522200
   230 H5         3.104661    -2.514239     0.945065 HA       8 DCN          0.186300
   231 C4         2.799912    -3.288859     3.004800 CA       8 DCN          0.843900
   232 N4         2.898406    -4.565468     2.683913 N2       8 DCN         -0.977300
   233 H41        2.803314    -5.244631     3.425395 H        8 DCN          0.431400
   234 H42        3.063322    -4.838270     1.725539 H        8 DCN          0.431400
   235 N3         2.582461    -2.976084     4.279079 NC       8 DCN         -0.774800
   236 C2         2.473124    -1.675589     4.661648 C        8 DCN          0.795900
   237 O2         2.270624    -1.344208     5.839264 O        8 DCN         -0.654800
   238 C3'        2.575663     2.966923     3.331156 C7       8 DCN          0.071300
   239 H3'        2.881940     3.535798     2.453275 H1       8 DCN          0.098500
   240 C2'        3.424930     1.698842     3.438933 CT       8 DCN         -0.085400
   241 H2'        4.177812     1.697074     2.650729 HC       8 DCN          0.071800
   242 H2''       3.917293     1.672208     4.411028 HC       8 DCN          0.071800
   243 O3'        2.785632     3.721367     4.515693 OH       8 DCN         -0.654900
   244 HO3'       3.677545     4.057868     4.629089 HO       8 DCN          0.439600
   245 P          2.314489     1.776673    -0.478436 P        9 DG           1.165900
   246 OP1        1.933410     3.073374    -1.081549 O2       9 DG          -0.776100
   247 OP2        3.156547     0.871841    -1.292450 O2       9 DG          -0.776100
   248 O5'        2.994369     2.142475     0.922974 OS       9 DG          -0.495400
   249 C5'        2.156035     2.551837     2.019887 CJ       9 DG          -0.006900
   250 H5'        1.452687     1.753841     2.257803 H1       9 DG           0.075400
   251 H5''       1.604968     3.450028     1.741178 H1       9 DG           0.075400
   252 C4'        3.008252     2.847921     3.243186 CT       9 DG           0.162900
   253 H4'        2.447118     3.477373     3.933851 H1       9 DG           0.117600
   254 O4'        3.228121     1.605168     3.977231 OS       9 DG          -0.369100
   255 C1'        4.558614     1.150950     3.777548 CT       9 DG           0.035800
   256 H1'        5.072002     1.095281     4.737461 H2       9 DG           0.174600
   257 N9         4.499533    -0.267934     3.326576 N*       9 DG           0.057700
   258 C8         4.267504    -0.772686     2.063331 CK       9 DG           0.073600
   259 H8         4.096308    -0.099877     1.236033 H5       9 DG           0.199700
   260 N7         4.278741    -2.081203     2.002035 NB       9 DG          -0.572500
   261 C5         4.535095    -2.474583     3.310330 CB       9 DG           0.199100
   262 C6         4.665031    -3.772051     3.872552 C        9 DG           0.491800
   263 O6         4.578059    -4.865457     3.315956 O        9 DG          -0.569900
   264 N1         4.925924    -3.709096     5.246587 NA       9 DG          -0.505300
   265 H1         5.032526    -4.575560     5.734311 H        9 DG           0.352000
   266 C2         5.047712    -2.547461     5.981551 CA       9 DG           0.743200
   267 N2         5.299265    -2.702442     7.288571 N2       9 DG          -0.923000
   268 H21        5.396738    -3.573950     7.789643 H        9 DG           0.423500
   269 H22        5.381214    -1.857324     7.835527 H        9 DG           0.423500
   270 N3         4.927829    -1.332945     5.452892 NC       9 DG          -0.663600
   271 C4         4.673998    -1.376548     4.117501 CB       9 DG           0.181400
   272 C3'        4.415606     3.377827     2.961306 C7       9 DG           0.071300
   273 H3'        4.412072     3.941489     2.028369 H1       9 DG           0.098500
   274 C2'        5.230443     2.095696     2.779425 CT       9 DG          -0.085400
   275 H2'        5.668211     2.081313     1.781301 HC       9 DG           0.071800
   276 H2''       6.025106     2.060820     3.524673 HC       9 DG           0.071800
   277 O3'        5.029898     4.128649     3.998279 OS       9 DG          -0.523200
   278 P          2.314489     1.776673    -0.478436 P       10 DG3          1.165900
   279 OP1        1.933410     3.073374    -1.081549 O2      10 DG3         -0.776100
   280 OP2        3.156547     0.871841    -1.292450 O2      10 DG3         -0.776100
   281 O5'        2.994369     2.142475     0.922974 OS      10 DG3         -0.495400
   282 C5'        2.156035     2.551837     2.019887 CJ      10 DG3         -0.006900
   283 H5'        1.452687     1.753841     2.257803 H1      10 DG3          0.075400
   284 H5''       1.604968     3.450028     1.741178 H1      10 DG3          0.075400
   285 C4'        3.008252     2.847921     3.243186 CT      10 DG3          0.162900
   286 H4'        2.447118     3.477373     3.933851 H1      10 DG3          0.117600
   287 O4'        3.228121     1.605168     3.977231 OS      10 DG3         -0.369100
   288 C1'        4.558614     1.150950     3.777548 CT      10 DG3          0.035800
   289 H1'        5.072002     1.095281     4.737461 H2      10 DG3          0.174600
   290 N9         4.499533    -0.267934     3.326576 N*      10 DG3          0.057700
   291 C8         4.267504    -0.772686     2.063331 CK      10 DG3          0.073600
   292 H8         4.096308    -0.099877     1.236033 H5      10 DG3          0.199700
   293 N7         4.278741    -2.081203     2.002035 NB      10 DG3         -0.572500
   294 C5         4.535095    -2.474583     3.310330 CB      10 DG3          0.199100
   295 C6         4.665031    -3.772051     3.872552 C       10 DG3          0.491800
   296 O6         4.578059    -4.865457     3.315956 O       10 DG3         -0.569900
   297 N1         4.925924    -3.709096     5.246587 NA      10 DG3         -0.505300
   298 H1         5.032526    -4.575560     5.734311 H       10 DG3          0.352000
   299 C2         5.047712    -2.547461     5.981551 CA      10 DG3          0.743200
   300 N2         5.299265    -2.702442     7.288571 N2      10 DG3         -0.923000
   301 H21        5.396738    -3.573950     7.789643 H       10 DG3          0.423500
   302 H22        5.381214    -1.857324     7.835527 H       10 DG3          0.423500
   303 N3         4.927829    -1.332945     5.452892 NC      10 DG3         -0.663600
   304 C4         4.673998    -1.376548     4.117501 CB      10 DG3          0.181400
   305 C3'        4.415606     3.377827     2.961306 C7      10 DG3          0.071300
   306 H3'        4.412072     3.941489     2.028369 H1      10 DG3          0.098500
   307 C2'        5.230443     2.095696     2.779425 CT      10 DG3         -0.085400
   308 H2'        5.668211     2.081313     1.781301 HC      10 DG3          0.071800
   309 H2''       6.025106     2.060820     3.524673 HC      10 DG3          0.071800
   310 O3'        5.029898     4.128649     3.998279 OH      10 DG3         -0.654900
   311 HO3'       5.911984     4.450161     3.797897 HO      10 DG3          0.439600
   312 HO5'       1.866026     1.500000    -0.000001 HO      11 DG5          0.442200
   313 O5'        1.958076     1.721055     0.929655 OH      11 DG5         -0.631800
   314 C5'        0.788438     2.110876     1.673689 CJ      11 DG5         -0.006900
   315 H5'        0.059609     1.300555     1.656698 H1      11 DG5          0.075400
   316 H5''       0.350939     3.001862     1.223312 H1      11 DG5          0.075400
   317 C4'        1.165852     2.413322     3.114690 CT      11 DG5          0.162900
   318 H4'        0.391898     3.029893     3.571785 H1      11 DG5          0.117600
   319 O4'        1.142228     1.169997     3.879664 OS      11 DG5         -0.369100
   320 C1'        2.468203     0.737932     4.147079 CT      11 DG5          0.035800
   321 H1'        2.623230     0.684850     5.224692 H2      11 DG5          0.174600
   322 N9         2.590683    -0.679099     3.703095 N*      11 DG5          0.057700
   323 C8         2.813129    -1.180191     2.436673 CK      11 DG5          0.073600
   324 H8         2.923923    -0.505431     1.600717 H5      11 DG5          0.199700
   325 N7         2.866570    -2.487996     2.382915 NB      11 DG5         -0.572500
   326 C5         2.666619    -2.884785     3.699987 CB      11 DG5          0.199100
   327 C6         2.618174    -4.183247     4.272741 C       11 DG5          0.491800
   328 O6         2.745116    -5.274679     3.719964 O       11 DG5         -0.569900
   329 N1         2.392360    -4.124070     5.653142 NA      11 DG5         -0.505300
   330 H1         2.340247    -4.991530     6.147911 H       11 DG5          0.352000
   331 C2         2.235990    -2.964893     6.385439 CA      11 DG5          0.743200
   332 N2         2.027970    -3.123384     7.699672 N2      11 DG5         -0.923000
   333 H21        1.962798    -3.996108     8.203861 H       11 DG5          0.423500
   334 H22        1.903763    -2.280230     8.241672 H       11 DG5          0.423500
   335 N3         2.283792    -1.749405     5.847662 NC      11 DG5         -0.663600
   336 C4         2.502700    -1.789344     4.505990 CB      11 DG5          0.181400
   337 C3'        2.575663     2.966923     3.331156 C7      11 DG5          0.071300
   338 H3'        2.881940     3.535798     2.453275 H1      11 DG5          0.098500
   339 C2'        3.424930     1.698842     3.438933 CT      11 DG5         -0.085400
   340 H2'        4.177812     1.697074     2.650729 HC      11 DG5          0.071800
   341 H2''       3.917293     1.672208     4.411028 HC      11 DG5          0.071800
   342 O3'        2.785632     3.721367     4.515693 OS      11 DG5         -0.523200
   343 HO5'       1.866026     1.500000    -0.000001 HO      12 DGN          0.442200
   344 O5'        1.958076     1.721055     0.929655 OH      12 DGN         -0.631800
   345 C5'        0.788438     2.110876     1.673689 CJ      12 DGN         -0.006900
   346 H5'        0.059609     1.300555     1.656698 H1      12 DGN          0.075400
   347 H5''       0.350939     3.001862     1.223312 H1      12 DGN          0.075400
   348 C4'        1.165852     2.413322     3.114690 CT      12 DGN          0.162900
   349 H4'        0.391898     3.029893     3.571785 H1      12 DGN          0.117600
   350 O4'        1.142228     1.169997     3.879664 OS      12 DGN         -0.369100
   351 C1'        2.468203     0.737932     4.147079 CT      12 DGN          0.035800
   352 H1'        2.623230     0.684850     5.224692 H2      12 DGN          0.174600
   353 N9         2.590683    -0.679099     3.703095 N*      12 DGN          0.057700
   354 C8         2.813129    -1.180191     2.436673 CK      12 DGN          0.073600
   355 H8         2.923923    -0.505431     1.600717 H5      12 DGN          0.199700
   356 N7         2.866570    -2.487996     2.382915 NB      12 DGN         -0.572500
   357 C5         2.666619    -2.884785     3.699987 CB      12 DGN          0.199100
   358 C6         2.618174    -4.183247     4.272741 C       12 DGN          0.491800
   359 O6         2.745116    -5.274679     3.719964 O       12 DGN         -0.569900
   360 N1         2.392360    -4.124070     5.653142 NA      12 DGN         -0.505300
   361 H1         2.340247    -4.991530     6.147911 H       12 DGN          0.352000
   362 C2         2.235990    -2.964893     6.385439 CA      12 DGN          0.743200
   363 N2         2.027970    -3.123384     7.699672 N2      12 DGN         -0.923000
   364 H21        1.962798    -3.996108     8.203861 H       12 DGN          0.423500
   365 H22        1.903763    -2.280230     8.241672 H       12 DGN          0.423500
   366 N3         2.283792    -1.749405     5.847662 NC      12 DGN         -0.663600
   367 C4         2.502700    -1.789344     4.505990 CB      12 DGN          0.181400
   368 C3'        2.575663     2.966923     3.331156 C7      12 DGN          0.071300
   369 H3'        2.881940     3.535798     2.453275 H1      12 DGN          0.098500
   370 C2'        3.424930     1.698842     3.438933 CT      12 DGN         -0.085400
   371 H2'        4.177812     1.697074     2.650729 HC      12 DGN          0.071800
   372 H2''       3.917293     1.672208     4.411028 HC      12 DGN          0.071800
   373 O3'        2.785632     3.721367     4.515693 OH      12 DGN         -0.654900
   374 HO3'       3.677545     4.057868     4.629089 HO      12 DGN          0.439600
   375 P          2.314489     1.776673    -0.478436 P       13 DT           1.165900
   376 OP1        1.933410     3.073374    -1.081549 O2      13 DT          -0.776100
   377 OP2        3.156547     0.871841    -1.292450 O2      13 DT          -0.776100
   378 O5'        2.994369     2.142475     0.922974 OS      13 DT          -0.495400
   379 C5'        2.156035     2.551837     2.019887 CJ      13 DT          -0.006900
   380 H5'        1.452687     1.753841     2.257803 H1      13 DT           0.075400
   381 H5''       1.604968     3.450028     1.741178 H1      13 DT           0.075400
   382 C4'        3.008252     2.847921     3.243186 CT      13 DT           0.162900
   383 H4'        2.447118     3.477373     3.933851 H1      13 DT           0.117600
   384 O4'        3.228121     1.605168     3.977231 OS      13 DT          -0.369100
   385 C1'        4.558614     1.150950     3.777548 CT      13 DT           0.068000
   386 H1'        5.072002     1.095281     4.737461 H2      13 DT           0.180400
   387 N1         4.538757    -0.306565     3.312624 N*      13 DT          -0.023900
   388 C6         4.316907    -0.672508     2.011175 CM      13 DT          -0.220900
   389 H6         4.145435     0.083636     1.259348 H4      13 DT           0.260700
   390 C5         4.360319    -1.957589     1.633974 CM      13 DT           0.002500
   391 C7         4.118886    -2.368545     0.211713 CT      13 DT          -0.226900
   392 H71        4.859541    -1.896829    -0.434053 HC      13 DT           0.077000
   393 H72        4.201276    -3.452127     0.127085 HC      13 DT           0.077000
   394 H73        3.120150    -2.055730    -0.092873 HC      13 DT           0.077000
   395 C4         4.642747    -2.996990     2.589735 C       13 DT           0.519400
   396 O4         4.702951    -4.199184     2.336743 O       13 DT          -0.556300
   397 N3         4.852825    -2.538493     3.874277 NA      13 DT          -0.434000
   398 H3         5.070434    -3.289149     4.634055 H       13 DT           0.342000
   399 C2         4.814724    -1.223882     4.292304 C       13 DT           0.567700
   400 O2         5.014668    -0.915001     5.455495 O       13 DT          -0.588100
   401 C3'        4.415606     3.377827     2.961306 C7      13 DT           0.071300
   402 H3'        4.412072     3.941489     2.028369 H1      13 DT           0.098500
   403 C2'        5.230443     2.095696     2.779425 CT      13 DT          -0.085400
   404 H2'        5.668211     2.081313     1.781301 HC      13 DT           0.071800
   405 H2''       6.025106     2.060820     3.524673 HC      13 DT           0.071800
   406 O3'        5.029898     4.128649     3.998279 OS      13 DT          -0.523200
   407 P          2.314489     1.776673    -0.478436 P       14 DT3          1.165900
   408 OP1        1.933410     3.073374    -1.081549 O2      14 DT3         -0.776100
   409 OP2        3.156547     0.871841    -1.292450 O2      14 DT3         -0.776100
   410 O5'        2.994369     2.142475     0.922974 OS      14 DT3         -0.495400
   411 C5'        2.156035     2.551837     2.019887 CJ      14 DT3         -0.006900
   412 H5'        1.452687     1.753841     2.257803 H1      14 DT3          0.075400
   413 H5''       1.604968     3.450028     1.741178 H1      14 DT3          0.075400
   414 C4'        3.008252     2.847921     3.243186 CT      14 DT3          0.162900
   415 H4'        2.447118     3.477373     3.933851 H1      14 DT3          0.117600
   416 O4'        3.228121     1.605168     3.977231 OS      14 DT3         -0.369100
   417 C1'        4.558614     1.150950     3.777548 CT      14 DT3          0.068000
   418 H1'        5.072002     1.095281     4.737461 H2      14 DT3          0.180400
   419 N1         4.538757    -0.306565     3.312624 N*      14 DT3         -0.023900
   420 C6         4.316907    -0.672508     2.011175 CM      14 DT3         -0.220900
   421 H6         4.145435     0.083636     1.259348 H4      14 DT3          0.260700
   422 C5         4.360319    -1.957589     1.633974 CM      14 DT3          0.002500
   423 C7         4.118886    -2.368545     0.211713 CT      14 DT3         -0.226900
   424 H71        4.859541    -1.896829    -0.434053 HC      14 DT3          0.077000
   425 H72        4.201276    -3.452127     0.127085 HC      14 DT3          0.077000
   426 H73        3.120150    -2.055730    -0.092873 HC      14 DT3          0.077000
   427 C4         4.642747    -2.996990     2.589735 C       14 DT3          0.519400
   428 O4         4.702951    -4.199184     2.336743 O       14 DT3         -0.556300
   429 N3         4.852825    -2.538493     3.874277 NA      14 DT3         -0.434000
   430 H3         5.070434    -3.289149     4.634055 H       14 DT3          0.342000
   431 C2         4.814724    -1.223882     4.292304 C       14 DT3          0.567700
   432 O2         5.014668    -0.915001     5.455495 O       14 DT3         -0.588100
   433 C3'        4.415606     3.377827     2.961306 C7      14 DT3          0.071300
   434 H3'        4.412072     3.941489     2.028369 H1      14 DT3          0.098500
   435 C2'        5.230443     2.095696     2.779425 CT      14 DT3         -0.085400
   436 H2'        5.668211     2.081313     1.781301 HC      14 DT3          0.071800
   437 H2''       6.025106     2.060820     3.524673 HC      14 DT3          0.071800
   438 O3'        5.029898     4.128649     3.998279 OH      14 DT3         -0.654900
   439 HO3'       5.911984     4.450161     3.797897 HO      14 DT3          0.439600
   440 HO5'       1.866026     1.500000    -0.000001 HO      15 DT5          0.442200
   441 O5'        1.958076     1.721055     0.929655 OH      15 DT5         -0.631800
   442 C5'        0.788438     2.110876     1.673689 CJ      15 DT5         -0.006900
   443 H5'        0.059609     1.300555     1.656698 H1      15 DT5          0.075400
   444 H5''       0.350939     3.001862     1.223312 H1      15 DT5          0.075400
   445 C4'        1.165852     2.413322     3.114690 CT      15 DT5          0.162900
   446 H4'        0.391898     3.029893     3.571785 H1      15 DT5          0.117600
   447 O4'        1.142228     1.169997     3.879664 OS      15 DT5         -0.369100
   448 C1'        2.468203     0.737932     4.147079 CT      15 DT5          0.068000
   449 H1'        2.623230     0.684850     5.224692 H2      15 DT5          0.180400
   450 N1         2.632954    -0.717027     3.703400 N*      15 DT5         -0.023900
   451 C6         2.875704    -1.078951     2.404560 CM      15 DT5         -0.220900
   452 H6         2.959033    -0.321303     1.639428 H4      15 DT5          0.260700
   453 C5         3.067013    -2.361006     2.064952 CM      15 DT5          0.002500
   454 C7         3.333432    -2.767553     0.645889 CT      15 DT5         -0.226900
   455 H71        4.242255    -2.280543     0.292388 HC      15 DT5          0.077000
   456 H72        3.457936    -3.849201     0.594542 HC      15 DT5          0.077000
   457 H73        2.493979    -2.468758     0.018083 HC      15 DT5          0.077000
   458 C4         3.022940    -3.401293     3.059668 C       15 DT5          0.519400
   459 O4         3.186163    -4.600921     2.842522 O       15 DT5         -0.556300
   460 N3         2.773361    -2.946917     4.338595 NA      15 DT5         -0.434000
   461 H3         2.730570    -3.698396     5.126977 H       15 DT5          0.342000
   462 C2         2.572586    -1.635486     4.718382 C       15 DT5          0.567700
   463 O2         2.357491    -1.330167     5.879810 O       15 DT5         -0.588100
   464 C3'        2.575663     2.966923     3.331156 C7      15 DT5          0.071300
   465 H3'        2.881940     3.535798     2.453275 H1      15 DT5          0.098500
   466 C2'        3.424930     1.698842     3.438933 CT      15 DT5         -0.085400
   467 H2'        4.177812     1.697074     2.650729 HC      15 DT5          0.071800
   468 H2''       3.917293     1.672208     4.411028 HC      15 DT5          0.071800
   469 O3'        2.785632     3.721367     4.515693 OS      15 DT5         -0.523200
   470 HO5'       1.866026     1.500000    -0.000001 HO      16 DTN          0.442200
   471 O5'        1.958076     1.721055     0.929655 OH      16 DTN         -0.631800
   472 C5'        0.788438     2.110876     1.673689 CJ      16 DTN         -0.006900
   473 H5'        0.059609     1.300555     1.656698 H1      16 DTN          0.075400
   474 H5''       0.350939     3.001862     1.223312 H1      16 DTN          0.075400
   475 C4'        1.165852     2.413322     3.114690 CT      16 DTN          0.162900
   476 H4'        0.391898     3.029893     3.571785 H1      16 DTN          0.117600
   477 O4'        1.142228     1.169997     3.879664 OS      16 DTN         -0.369100
   478 C1'        2.468203     0.737932     4.147079 CT      16 DTN          0.068000
   479 H1'        2.623230     0.684850     5.224692 H2      16 DTN          0.180400
   480 N1         2.632954    -0.717027     3.703400 N*      16 DTN         -0.023900
   481 C6         2.875704    -1.078951     2.404560 CM      16 DTN         -0.220900
   482 H6         2.959033    -0.321303     1.639428 H4      16 DTN          0.260700
   483 C5         3.067013    -2.361006     2.064952 CM      16 DTN          0.002500
   484 C7         3.333432    -2.767553     0.645889 CT      16 DTN         -0.226900
   485 H71        4.242255    -2.280543     0.292388 HC      16 DTN          0.077000
   486 H72        3.457936    -3.849201     0.594542 HC      16 DTN          0.077000
   487 H73        2.493979    -2.468758     0.018083 HC      16 DTN          0.077000
   488 C4         3.022940    -3.401293     3.059668 C       16 DTN          0.519400
   489 O4         3.186163    -4.600921     2.842522 O       16 DTN         -0.556300
   490 N3         2.773361    -2.946917     4.338595 NA      16 DTN         -0.434000
   491 H3         2.730570    -3.698396     5.126977 H       16 DTN          0.342000
   492 C2         2.572586    -1.635486     4.718382 C       16 DTN          0.567700
   493 O2         2.357491    -1.330167     5.879810 O       16 DTN         -0.588100
   494 C3'        2.575663     2.966923     3.331156 C7      16 DTN          0.071300
   495 H3'        2.881940     3.535798     2.453275 H1      16 DTN          0.098500
   496 C2'        3.424930     1.698842     3.438933 CT      16 DTN         -0.085400
   497 H2'        4.177812     1.697074     2.650729 HC      16 DTN          0.071800
   498 H2''       3.917293     1.672208     4.411028 HC      16 DTN          0.071800
   499 O3'        2.785632     3.721367     4.515693 OH      16 DTN         -0.654900
   500 HO3'       3.677545     4.057868     4.629089 HO      16 DTN          0.439600
@<TRIPOS>BOND
     1      1      2 1
     2      1      3 1
     3      1      4 1
     4      4      5 1
     5      5      6 1
     6      5      7 1
     7      5      8 1
     8      8      9 1
     9      8     10 1
    10      8     27 1
    11     10     11 1
    12     11     12 1
    13     11     13 1
    14     11     29 1
    15     13     14 1
    16     13     26 1
    17     14     15 1
    18     14     16 1
    19     16     17 1
    20     17     18 1
    21     17     26 1
    22     18     19 1
    23     18     22 1
    24     19     20 1
    25     19     21 1
    26     22     23 1
    27     23     24 1
    28     23     25 1
    29     25     26 1
    30     27     28 1
    31     27     29 1
    32     27     32 1
    33     29     30 1
    34     29     31 1
    35     33     34 1
    36     33     35 1
    37     33     36 1
    38     36     37 1
    39     37     38 1
    40     37     39 1
    41     37     40 1
    42     40     41 1
    43     40     42 1
    44     40     59 1
    45     42     43 1
    46     43     44 1
    47     43     45 1
    48     43     61 1
    49     45     46 1
    50     45     58 1
    51     46     47 1
    52     46     48 1
    53     48     49 1
    54     49     50 1
    55     49     58 1
    56     50     51 1
    57     50     54 1
    58     51     52 1
    59     51     53 1
    60     54     55 1
    61     55     56 1
    62     55     57 1
    63     57     58 1
    64     59     60 1
    65     59     61 1
    66     59     64 1
    67     61     62 1
    68     61     63 1
    69     64     65 1
    70     66     67 1
    71     67     68 1
    72     68     69 1
    73     68     70 1
    74     68     71 1
    75     71     72 1
    76     71     73 1
    77     71     90 1
    78     73     74 1
    79     74     75 1
    80     74     76 1
    81     74     92 1
    82     76     77 1
    83     76     89 1
    84     77     78 1
    85     77     79 1
    86     79     80 1
    87     80     81 1
    88     80     89 1
    89     81     82 1
    90     81     85 1
    91     82     83 1
    92     82     84 1
    93     85     86 1
    94     86     87 1
    95     86     88 1
    96     88     89 1
    97     90     91 1
    98     90     92 1
    99     90     95 1
   100     92     93 1
   101     92     94 1
   102     96     97 1
   103     97     98 1
   104     98     99 1
   105     98    100 1
   106     98    101 1
   107    101    102 1
   108    101    103 1
   109    101    120 1
   110    103    104 1
   111    104    105 1
   112    104    106 1
   113    104    122 1
   114    106    107 1
   115    106    119 1
   116    107    108 1
   117    107    109 1
   118    109    110 1
   119    110    111 1
   120    110    119 1
   121    111    112 1
   122    111    115 1
   123    112    113 1
   124    112    114 1
   125    115    116 1
   126    116    117 1
   127    116    118 1
   128    118    119 1
   129    120    121 1
   130    120    122 1
   131    120    125 1
   132    122    123 1
   133    122    124 1
   134    125    126 1
   135    127    128 1
   136    127    129 1
   137    127    130 1
   138    130    131 1
   139    131    132 1
   140    131    133 1
   141    131    134 1
   142    134    135 1
   143    134    136 1
   144    134    151 1
   145    136    137 1
   146    137    138 1
   147    137    139 1
   148    137    153 1
   149    139    140 1
   150    139    149 1
   151    140    141 1
   152    140    142 1
   153    142    143 1
   154    142    144 1
   155    144    145 1
   156    144    148 1
   157    145    146 1
   158    145    147 1
   159    148    149 1
   160    149    150 1
   161    151    152 1
   162    151    153 1
   163    151    156 1
   164    153    154 1
   165    153    155 1
   166    157    158 1
   167    157    159 1
   168    157    160 1
   169    160    161 1
   170    161    162 1
   171    161    163 1
   172    161    164 1
   173    164    165 1
   174    164    166 1
   175    164    181 1
   176    166    167 1
   177    167    168 1
   178    167    169 1
   179    167    183 1
   180    169    170 1
   181    169    179 1
   182    170    171 1
   183    170    172 1
   184    172    173 1
   185    172    174 1
   186    174    175 1
   187    174    178 1
   188    175    176 1
   189    175    177 1
   190    178    179 1
   191    179    180 1
   192    181    182 1
   193    181    183 1
   194    181    186 1
   195    183    184 1
   196    183    185 1
   197    186    187 1
   198    188    189 1
   199    189    190 1
   200    190    191 1
   201    190    192 1
   202    190    193 1
   203    193    194 1
   204    193    195 1
   205    193    210 1
   206    195    196 1
   207    196    197 1
   208    196    198 1
   209    196    212 1
   210    198    199 1
   211    198    208 1
   212    199    200 1
   213    199    201 1
   214    201    202 1
   215    201    203 1
   216    203    204 1
   217    203    207 1
   218    204    205 1
   219    204    206 1
   220    207    208 1
   221    208    209 1
   222    210    211 1
   223    210    212 1
   224    210    215 1
   225    212    213 1
   226    212    214 1
   227    216    217 1
   228    217    218 1
   229    218    219 1
   230    218    220 1
   231    218    221 1
   232    221    222 1
   233    221    223 1
   234    221    238 1
   235    223    224 1
   236    224    225 1
   237    224    226 1
   238    224    240 1
   239    226    227 1
   240    226    236 1
   241    227    228 1
   242    227    229 1
   243    229    230 1
   244    229    231 1
   245    231    232 1
   246    231    235 1
   247    232    233 1
   248    232    234 1
   249    235    236 1
   250    236    237 1
   251    238    239 1
   252    238    240 1
   253    238    243 1
   254    240    241 1
   255    240    242 1
   256    243    244 1
   257    245    246 1
   258    245    247 1
   259    245    248 1
   260    248    249 1
   261    249    250 1
   262    249    251 1
   263    249    252 1
   264    252    253 1
   265    252    254 1
   266    252    272 1
   267    254    255 1
   268    255    256 1
   269    255    257 1
   270    255    274 1
   271    257    258 1
   272    257    271 1
   273    258    259 1
   274    258    260 1
   275    260    261 1
   276    261    262 1
   277    261    271 1
   278    262    263 1
   279    262    264 1
   280    264    265 1
   281    264    266 1
   282    266    267 1
   283    266    270 1
   284    267    268 1
   285    267    269 1
   286    270    271 1
   287    272    273 1
   288    272    274 1
   289    272    277 1
   290    274    275 1
   291    274    276 1
   292    278    279 1
   293    278    280 1
   294    278    281 1
   295    281    282 1
   296    282    283 1
   297    282    284 1
   298    282    285 1
   299    285    286 1
   300    285    287 1
   301    285    305 1
   302    287    288 1
   303    288    289 1
   304    288    290 1
   305    288    307 1
   306    290    291 1
   307    290    304 1
   308    291    292 1
   309    291    293 1
   310    293    294 1
   311    294    295 1
   312    294    304 1
   313    295    296 1
   314    295    297 1
   315    297    298 1
   316    297    299 1
   317    299    300 1
   318    299    303 1
   319    300    301 1
   320    300    302 1
   321    303    304 1
   322    305    306 1
   323    305    307 1
   324    305    310 1
   325    307    308 1
   326    307    309 1
   327    310    311 1
   328    312    313 1
   329    313    314 1
   330    314    315 1
   331    314    316 1
   332    314    317 1
   333    317    318 1
   334    317    319 1
   335    317    337 1
   336    319    320 1
   337    320    321 1
   338    320    322 1
   339    320    339 1
   340    322    323 1
   341    322    336 1
   342    323    324 1
   343    323    325 1
   344    325    326 1
   345    326    327 1
   346    326    336 1
   347    327    328 1
   348    327    329 1
   349    329    330 1
   350    329    331 1
   351    331    332 1
   352    331    335 1
   353    332    333 1
   354    332    334 1
   355    335    336 1
   356    337    338 1
   357    337    339 1
   358    337    342 1
   359    339    340 1
   360    339    341 1
   361    343    344 1
   362    344    345 1
   363    345    346 1
   364    345    347 1
   365    345    348 1
   366    348    349 1
   367    348    350 1
   368    348    368 1
   369    350    351 1
   370    351    352 1
   371    351    353 1
   372    351    370 1
   373    353    354 1
   374    353    367 1
   375    354    355 1
   376    354    356 1
   377    356    357 1
   378    357    358 1
   379    357    367 1
   380    358    359 1
   381    358    360 1
   382    360    361 1
   383    360    362 1
   384    362    363 1
   385    362    366 1
   386    363    364 1
   387    363    365 1
   388    366    367 1
   389    368    369 1
   390    368    370 1
   391    368    373 1
   392    370    371 1
   393    370    372 1
   394    373    374 1
   395    375    376 1
   396    375    377 1
   397    375    378 1
   398    378    379 1
   399    379    380 1
   400    379    381 1
   401    379    382 1
   402    382    383 1
   403    382    384 1
   404    382    401 1
   405    384    385 1
   406    385    386 1
   407    385    387 1
   408    385    403 1
   409    387    388 1
   410    387    399 1
   411    388    389 1
   412    388    390 1
   413    390    391 1
   414    390    395 1
   415    391    392 1
   416    391    393 1
   417    391    394 1
   418    395    396 1
   419    395    397 1
   420    397    398 1
   421    397    399 1
   422    399    400 1
   423    401    402 1
   424    401    403 1
   425    401    406 1
   426    403    404 1
   427    403    405 1
   428    407    408 1
   429    407    409 1
   430    407    410 1
   431    410    411 1
   432    411    412 1
   433    411    413 1
   434    411    414 1
   435    414    415 1
   436    414    416 1
   437    414    433 1
   438    416    417 1
   439    417    418 1
   440    417    419 1
   441    417    435 1
   442    419    420 1
   443    419    431 1
   444    420    421 1
   445    420    422 1
   446    422    423 1
   447    422    427 1
   448    423    424 1
   449    423    425 1
   450    423    426 1
   451    427    428 1
   452    427    429 1
   453    429    430 1
   454    429    431 1
   455    431    432 1
   456    433    434 1
   457    433    435 1
   458    433    438 1
   459    435    436 1
   460    435    437 1
   461    438    439 1
   462    440    441 1
   463    441    442 1
   464    442    443 1
   465    442    444 1
   466    442    445 1
   467    445    446 1
   468    445    447 1
   469    445    464 1
   470    447    448 1
   471    448    449 1
   472    448    450 1
   473    448    466 1
   474    450    451 1
   475    450    462 1
   476    451    452 1
   477    451    453 1
   478    453    454 1
   479    453    458 1
   480    454    455 1
   481    454    456 1
   482    454    457 1
   483    458    459 1
   484    458    460 1
   485    460    461 1
   486    460    462 1
   487    462    463 1
   488    464    465 1
   489    464    466 1
   490    464    469 1
   491    466    467 1
   492    466    468 1
   493    470    471 1
   494    471    472 1
   495    472    473 1
   496    472    474 1
   497    472    475 1
   498    475    476 1
   499    475    477 1
   500    475    494 1
   501    477    478 1
   502    478    479 1
   503    478    480 1
   504    478    496 1
   505    480    481 1
   506    480    492 1
   507    481    482 1
   508    481    483 1
   509    483    484 1
   510    483    488 1
   511    484    485 1
   512    484    486 1
   513    484    487 1
   514    488    489 1
   515    488    490 1
   516    490    491 1
   517    490    492 1
   518    492    493 1
   519    494    495 1
   520    494    496 1
   521    494    499 1
   522    496    497 1
   523    496    498 1
   524    499    500 1
@<TRIPOS>SUBSTRUCTURE
     1 DA            1 ****               0 ****  ****
     2 DA3          33 ****               0 ****  ****
     3 DA5          66 ****               0 ****  ****
     4 DAN          96 ****               0 ****  ****
     5 DC          127 ****               0 ****  ****
     6 DC3         157 ****               0 ****  ****
     7 DC5         188 ****               0 ****  ****
     8 DCN         216 ****               0 ****  ****
     9 DG          245 ****               0 ****  ****
    10 DG3         278 ****               0 ****  ****
    11 DG5         312 ****               0 ****  ****
    12 DGN         343 ****               0 ****  ****
    13 DT          375 ****               0 ****  ****
    14 DT3         407 ****               0 ****  ****
    15 DT5         440 ****               0 ****  ****
    16 DTN         470 ****               0 ****  ****
