@<TRIPOS>MOLECULE
TERMINAL_MONOPHOSPHATE
   135    141      4 0 1
SMALL
USER_CHARGES
@<TRIPOS>ATOM
     1 P          2.314489     1.776673    -0.478436 P        1 DA5MP        1.166100
     2 OP1        1.933410     3.073374    -1.081549 O2       1 DA5MP       -0.776100
     3 OP2        3.156547     0.871841    -1.292450 O2       1 DA5MP       -0.776100
     4 OP3        1.049659     1.027044    -0.180200 OH       1 DA5MP       -0.621000
     5 HOP3       0.576795     0.814885    -1.036107 HO       1 DA5MP        0.312900
     6 O5'        2.994369     2.142475     0.922974 OS       1 DA5MP       -0.495400
     7 C5'        2.156035     2.551837     2.019887 CJ       1 DA5MP       -0.006900
     8 H5'        1.452687     1.753841     2.257803 H1       1 DA5MP        0.075400
     9 H5''       1.604968     3.450028     1.741178 H1       1 DA5MP        0.075400
    10 C4'        3.008252     2.847921     3.243186 CT       1 DA5MP        0.162900
    11 H4'        2.447118     3.477373     3.933851 H1       1 DA5MP        0.117600
    12 O4'        3.228121     1.605168     3.977231 OS       1 DA5MP       -0.369100
    13 C1'        4.558614     1.150950     3.777548 CT       1 DA5MP        0.043100
    14 H1'        5.072002     1.095281     4.737461 H2       1 DA5MP        0.183800
    15 C2'        5.230443     2.095696     2.779425 CT       1 DA5MP       -0.085400
    16 H2'        5.668211     2.081313     1.781301 HC       1 DA5MP        0.071800
    17 H2''       6.025106     2.060820     3.524673 HC       1 DA5MP        0.071800
    18 N9         4.538887    -0.297039     3.315663 N*       1 DA5MP       -0.026800
    19 C4         4.806144    -1.356352     4.133219 CB       1 DA5MP        0.380000
    20 C5         4.754063    -2.480044     3.363010 CB       1 DA5MP        0.072500
    21 C6         4.998001    -3.708197     3.989216 CA       1 DA5MP        0.689700
    22 N1         5.265303    -3.689337     5.302150 NC       1 DA5MP       -0.762400
    23 C2         5.284983    -2.519871     5.935286 CQ       1 DA5MP        0.571600
    24 H2         5.498276    -2.482153     6.993342 H5       1 DA5MP        0.059800
    25 N6         4.976786    -4.883494     3.345922 N2       1 DA5MP       -0.912300
    26 H61        5.160722    -5.738815     3.850595 H        1 DA5MP        0.416700
    27 H62        4.776859    -4.914033     2.356379 H        1 DA5MP        0.416700
    28 N7         4.452865    -2.140973     2.049081 NB       1 DA5MP       -0.617500
    29 N3         5.072691    -1.308506     5.455779 NC       1 DA5MP       -0.741700
    30 C8         4.336753    -0.846471     2.077048 C2       1 DA5MP        0.160700
    31 H8         4.152405    -0.207228     1.226292 H5       1 DA5MP        0.187700
    32 C3'        4.415606     3.377827     2.961306 C7       1 DA5MP        0.071300
    33 H3'        4.412072     3.941489     2.028369 H1       1 DA5MP        0.098500
    34 O3'        5.029898     4.128649     3.998279 OS       1 DA5MP       -0.523200
    35 P          2.314489     1.776673    -0.478436 P        2 DC5MP        1.166100
    36 OP1        1.933410     3.073374    -1.081549 O2       2 DC5MP       -0.776100
    37 OP2        3.156547     0.871841    -1.292450 O2       2 DC5MP       -0.776100
    38 OP3        1.049659     1.027044    -0.180200 OH       2 DC5MP       -0.621000
    39 HOP3       0.576795     0.814885    -1.036107 HO       2 DC5MP        0.312900
    40 O5'        2.994369     2.142475     0.922974 OS       2 DC5MP       -0.495400
    41 C5'        2.156035     2.551837     2.019887 CJ       2 DC5MP       -0.006900
    42 H5'        1.452687     1.753841     2.257803 H1       2 DC5MP        0.075400
    43 H5''       1.604968     3.450028     1.741178 H1       2 DC5MP        0.075400
    44 C4'        3.008252     2.847921     3.243186 CT       2 DC5MP        0.162900
    45 H4'        2.447118     3.477373     3.933851 H1       2 DC5MP        0.117600
    46 O4'        3.228121     1.605168     3.977231 OS       2 DC5MP       -0.369100
    47 C1'        4.558614     1.150950     3.777548 CT       2 DC5MP       -0.011600
    48 H1'        5.072002     1.095281     4.737461 H2       2 DC5MP        0.196300
    49 C2'        5.230443     2.095696     2.779425 CT       2 DC5MP       -0.085400
    50 H2'        5.668211     2.081313     1.781301 HC       2 DC5MP        0.071800
    51 H2''       6.025106     2.060820     3.524673 HC       2 DC5MP        0.071800
    52 N1         4.500572    -0.267961     3.326525 N*       2 DC5MP       -0.033900
    53 C2         4.701238    -1.262314     4.273234 C        2 DC5MP        0.795900
    54 O2         4.918963    -0.927584     5.447181 O        2 DC5MP       -0.654800
    55 N3         4.652648    -2.564458     3.883801 NC       2 DC5MP       -0.774800
    56 C4         4.416202    -2.880835     2.613801 CA       2 DC5MP        0.843900
    57 C5         4.205657    -1.878084     1.616273 C1       2 DC5MP       -0.522200
    58 H5         4.010254    -2.111434     0.569628 HA       2 DC5MP        0.186300
    59 N4         4.378897    -4.158915     2.285902 N2       2 DC5MP       -0.977300
    60 H41        4.532463    -4.836389     3.019078 H        2 DC5MP        0.431400
    61 H42        4.201767    -4.434444     1.330491 H        2 DC5MP        0.431400
    62 C6         4.258199    -0.582249     2.025726 C1       2 DC5MP       -0.018300
    63 H6         4.103961     0.202767     1.300219 H4       2 DC5MP        0.229300
    64 C3'        4.415606     3.377827     2.961306 C7       2 DC5MP        0.071300
    65 H3'        4.412072     3.941489     2.028369 H1       2 DC5MP        0.098500
    66 O3'        5.029898     4.128649     3.998279 OS       2 DC5MP       -0.523200
    67 P          2.314489     1.776673    -0.478436 P        3 DG5MP        1.166100
    68 OP1        1.933410     3.073374    -1.081549 O2       3 DG5MP       -0.776100
    69 OP2        3.156547     0.871841    -1.292450 O2       3 DG5MP       -0.776100
    70 OP3        1.049659     1.027044    -0.180200 OH       3 DG5MP       -0.621000
    71 HOP3       0.576795     0.814885    -1.036107 HO       3 DG5MP        0.312900
    72 O5'        2.994369     2.142475     0.922974 OS       3 DG5MP       -0.495400
    73 C5'        2.156035     2.551837     2.019887 CJ       3 DG5MP       -0.006900
    74 H5'        1.452687     1.753841     2.257803 H1       3 DG5MP        0.075400
    75 H5''       1.604968     3.450028     1.741178 H1       3 DG5MP        0.075400
    76 C4'        3.008252     2.847921     3.243186 CT       3 DG5MP        0.162900
    77 H4'        2.447118     3.477373     3.933851 H1       3 DG5MP        0.117600
    78 O4'        3.228121     1.605168     3.977231 OS       3 DG5MP       -0.369100
    79 C1'        4.558614     1.150950     3.777548 CT       3 DG5MP        0.035800
    80 H1'        5.072002     1.095281     4.737461 H2       3 DG5MP        0.174600
    81 C2'        5.230443     2.095696     2.779425 CT       3 DG5MP       -0.085400
    82 H2'        5.668211     2.081313     1.781301 HC       3 DG5MP        0.071800
    83 H2''       6.025106     2.060820     3.524673 HC       3 DG5MP        0.071800
    84 N9         4.499533    -0.267934     3.326576 N*       3 DG5MP        0.057700
    85 C4         4.673998    -1.376548     4.117501 CB       3 DG5MP        0.181400
    86 C5         4.535095    -2.474583     3.310330 CB       3 DG5MP        0.199100
    87 C6         4.665031    -3.772051     3.872552 C        3 DG5MP        0.491800
    88 O6         4.578059    -4.865457     3.315956 O        3 DG5MP       -0.569900
    89 N1         4.925924    -3.709096     5.246587 NA       3 DG5MP       -0.505300
    90 H1         5.032526    -4.575560     5.734311 H        3 DG5MP        0.352000
    91 C2         5.047712    -2.547461     5.981551 CA       3 DG5MP        0.743200
    92 N2         5.299265    -2.702442     7.288571 N2       3 DG5MP       -0.923000
    93 H21        5.396738    -3.573950     7.789643 H        3 DG5MP        0.423500
    94 H22        5.381214    -1.857324     7.835527 H        3 DG5MP        0.423500
    95 N7         4.278741    -2.081203     2.002035 NB       3 DG5MP       -0.572500
    96 N3         4.927829    -1.332945     5.452892 NC       3 DG5MP       -0.663600
    97 C8         4.267504    -0.772686     2.063331 CK       3 DG5MP        0.073600
    98 H8         4.096308    -0.099877     1.236033 H5       3 DG5MP        0.199700
    99 C3'        4.415606     3.377827     2.961306 C7       3 DG5MP        0.071300
   100 H3'        4.412072     3.941489     2.028369 H1       3 DG5MP        0.098500
   101 O3'        5.029898     4.128649     3.998279 OS       3 DG5MP       -0.523200
   102 P          2.314489     1.776673    -0.478436 P        4 DT5MP        1.166100
   103 OP1        1.933410     3.073374    -1.081549 O2       4 DT5MP       -0.776100
   104 OP2        3.156547     0.871841    -1.292450 O2       4 DT5MP       -0.776100
   105 OP3        1.049659     1.027044    -0.180200 OH       4 DT5MP       -0.621000
   106 HOP3       0.576795     0.814885    -1.036107 HO       4 DT5MP        0.312900
   107 O5'        2.994369     2.142475     0.922974 OS       4 DT5MP       -0.495400
   108 C5'        2.156035     2.551837     2.019887 CJ       4 DT5MP       -0.006900
   109 H5'        1.452687     1.753841     2.257803 H1       4 DT5MP        0.075400
   110 H5''       1.604968     3.450028     1.741178 H1       4 DT5MP        0.075400
   111 C4'        3.008252     2.847921     3.243186 CT       4 DT5MP        0.162900
   112 H4'        2.447118     3.477373     3.933851 H1       4 DT5MP        0.117600
   113 O4'        3.228121     1.605168     3.977231 OS       4 DT5MP       -0.369100
   114 C1'        4.558614     1.150950     3.777548 CT       4 DT5MP        0.068000
   115 H1'        5.072002     1.095281     4.737461 H2       4 DT5MP        0.180400
   116 C2'        5.230443     2.095696     2.779425 CT       4 DT5MP       -0.085400
   117 H2'        5.668211     2.081313     1.781301 HC       4 DT5MP        0.071800
   118 H2''       6.025106     2.060820     3.524673 HC       4 DT5MP        0.071800
   119 N1         4.538757    -0.306565     3.312624 N*       4 DT5MP       -0.023900
   120 C2         4.814724    -1.223882     4.292304 C        4 DT5MP        0.567700
   121 O2         5.014668    -0.915001     5.455495 O        4 DT5MP       -0.588100
   122 N3         4.852825    -2.538493     3.874277 NA       4 DT5MP       -0.434000
   123 H3         5.070434    -3.289149     4.634055 H        4 DT5MP        0.342000
   124 C4         4.642747    -2.996990     2.589735 C        4 DT5MP        0.519400
   125 O4         4.702951    -4.199184     2.336743 O        4 DT5MP       -0.556300
   126 C5         4.360319    -1.957589     1.633974 CM       4 DT5MP        0.002500
   127 C7         4.118886    -2.368545     0.211713 CT       4 DT5MP       -0.226900
   128 H71        4.859541    -1.896829    -0.434053 HC       4 DT5MP        0.077000
   129 H72        4.201276    -3.452127     0.127085 HC       4 DT5MP        0.077000
   130 H73        3.120150    -2.055730    -0.092873 HC       4 DT5MP        0.077000
   131 C6         4.316907    -0.672508     2.011175 CM       4 DT5MP       -0.220900
   132 H6         4.145435     0.083636     1.259348 H4       4 DT5MP        0.260700
   133 C3'        4.415606     3.377827     2.961306 C7       4 DT5MP        0.071300
   134 H3'        4.412072     3.941489     2.028369 H1       4 DT5MP        0.098500
   135 O3'        5.029898     4.128649     3.998279 OS       4 DT5MP       -0.523200
@<TRIPOS>BOND
     1      1      2 1
     2      1      3 1
     3      1      4 1
     4      1      6 1
     5      4      5 1
     6      6      7 1
     7      7      8 1
     8      7      9 1
     9      7     10 1
    10     10     11 1
    11     10     12 1
    12     10     32 1
    13     12     13 1
    14     13     14 1
    15     13     15 1
    16     13     18 1
    17     15     16 1
    18     15     17 1
    19     15     32 1
    20     18     19 1
    21     18     30 1
    22     19     20 1
    23     19     29 1
    24     20     21 1
    25     20     28 1
    26     21     22 1
    27     21     25 1
    28     22     23 1
    29     23     24 1
    30     23     29 1
    31     25     26 1
    32     25     27 1
    33     28     30 1
    34     30     31 1
    35     32     33 1
    36     32     34 1
    37     35     36 1
    38     35     37 1
    39     35     38 1
    40     35     40 1
    41     38     39 1
    42     40     41 1
    43     41     42 1
    44     41     43 1
    45     41     44 1
    46     44     45 1
    47     44     46 1
    48     44     64 1
    49     46     47 1
    50     47     48 1
    51     47     49 1
    52     47     52 1
    53     49     50 1
    54     49     51 1
    55     49     64 1
    56     52     53 1
    57     52     62 1
    58     53     54 1
    59     53     55 1
    60     55     56 1
    61     56     57 1
    62     56     59 1
    63     57     58 1
    64     57     62 1
    65     59     60 1
    66     59     61 1
    67     62     63 1
    68     64     65 1
    69     64     66 1
    70     67     68 1
    71     67     69 1
    72     67     70 1
    73     67     72 1
    74     70     71 1
    75     72     73 1
    76     73     74 1
    77     73     75 1
    78     73     76 1
    79     76     77 1
    80     76     78 1
    81     76     99 1
    82     78     79 1
    83     79     80 1
    84     79     81 1
    85     79     84 1
    86     81     82 1
    87     81     83 1
    88     81     99 1
    89     84     85 1
    90     84     97 1
    91     85     86 1
    92     85     96 1
    93     86     87 1
    94     86     95 1
    95     87     88 1
    96     87     89 1
    97     89     90 1
    98     89     91 1
    99     91     92 1
   100     91     96 1
   101     92     93 1
   102     92     94 1
   103     95     97 1
   104     97     98 1
   105     99    100 1
   106     99    101 1
   107    102    103 1
   108    102    104 1
   109    102    105 1
   110    102    107 1
   111    105    106 1
   112    107    108 1
   113    108    109 1
   114    108    110 1
   115    108    111 1
   116    111    112 1
   117    111    113 1
   118    111    133 1
   119    113    114 1
   120    114    115 1
   121    114    116 1
   122    114    119 1
   123    116    117 1
   124    116    118 1
   125    116    133 1
   126    119    120 1
   127    119    131 1
   128    120    121 1
   129    120    122 1
   130    122    123 1
   131    122    124 1
   132    124    125 1
   133    124    126 1
   134    126    127 1
   135    126    131 1
   136    127    128 1
   137    127    129 1
   138    127    130 1
   139    131    132 1
   140    133    134 1
   141    133    135 1
@<TRIPOS>SUBSTRUCTURE
     1 DA5MP         1 ****               0 ****  ****
     2 DC5MP        35 ****               0 ****  ****
     3 DG5MP        67 ****               0 ****  ****
     4 DT5MP       102 ****               0 ****  ****
