@<TRIPOS>MOLECULE
TERMINAL_MONOPHOSPHATE
   136    142      4 0 1
SMALL
USER_CHARGES
@<TRIPOS>ATOM
     1 P          2.314489     1.776673    -0.478436 P        1 A5MP         1.166200
     2 OP1        1.933410     3.073374    -1.081549 O2       1 A5MP        -0.776000
     3 OP2        3.156547     0.871841    -1.292450 O2       1 A5MP        -0.776000
     4 OP3        1.049659     1.027044    -0.180200 OH       1 A5MP        -0.621000
     5 HOP3       0.576795     0.814885    -1.036107 HO       1 A5MP         0.312900
     6 O5'        2.994369     2.142475     0.922974 OS       1 A5MP        -0.498900
     7 C5'        2.156035     2.551837     2.019887 CI       1 A5MP         0.055800
     8 H5'        1.452687     1.753841     2.257803 H1       1 A5MP         0.067900
     9 H5''       1.604968     3.450028     1.741178 H1       1 A5MP         0.067900
    10 C4'        3.008252     2.847921     3.243186 CT       1 A5MP         0.106500
    11 H4'        2.447118     3.477373     3.933851 H1       1 A5MP         0.117400
    12 O4'        3.228121     1.605168     3.977231 OS       1 A5MP        -0.354800
    13 C1'        4.558614     1.150950     3.777548 CT       1 A5MP         0.039400
    14 H1'        5.072002     1.095281     4.737461 H2       1 A5MP         0.200700
    15 C2'        5.230443     2.095696     2.779425 CT       1 A5MP         0.067000
    16 H2'        5.668211     2.081313     1.781301 H1       1 A5MP         0.097200
    17 O2'        6.272982     2.049941     3.757136 OH       1 A5MP        -0.613900
    18 HO2'       6.759278     1.235228     3.610987 HO       1 A5MP         0.418600
    19 N9         4.538887    -0.297039     3.315663 N*       1 A5MP        -0.025100
    20 C4         4.806144    -1.356352     4.133219 CB       1 A5MP         0.305300
    21 C5         4.754063    -2.480044     3.363010 CB       1 A5MP         0.051500
    22 C6         4.998001    -3.708197     3.989216 CA       1 A5MP         0.700900
    23 N1         5.265303    -3.689337     5.302150 NC       1 A5MP        -0.761500
    24 C2         5.284983    -2.519871     5.935286 CQ       1 A5MP         0.587500
    25 H2         5.498276    -2.482153     6.993342 H5       1 A5MP         0.047300
    26 N6         4.976786    -4.883494     3.345922 N2       1 A5MP        -0.901900
    27 H61        5.160722    -5.738815     3.850595 H        1 A5MP         0.411500
    28 H62        4.776859    -4.914033     2.356379 H        1 A5MP         0.411500
    29 N7         4.452865    -2.140973     2.049081 NB       1 A5MP        -0.607300
    30 N3         5.072691    -1.308506     5.455779 NC       1 A5MP        -0.699700
    31 C8         4.336753    -0.846471     2.077048 C5       1 A5MP         0.200600
    32 H8         4.152405    -0.207228     1.226292 H5       1 A5MP         0.155300
    33 C3'        4.415606     3.377827     2.961306 CT       1 A5MP         0.202200
    34 H3'        4.412072     3.941489     2.028369 H1       1 A5MP         0.061500
    35 O3'        5.029898     4.128649     3.998279 OS       1 A5MP        -0.524600
    36 P          2.314489     1.776673    -0.478436 P        2 C5MP         1.166200
    37 OP1        1.933410     3.073374    -1.081549 O2       2 C5MP        -0.776000
    38 OP2        3.156547     0.871841    -1.292450 O2       2 C5MP        -0.776000
    39 OP3        1.049659     1.027044    -0.180200 OH       2 C5MP        -0.621000
    40 HOP3       0.576795     0.814885    -1.036107 HO       2 C5MP         0.312900
    41 O5'        2.994369     2.142475     0.922974 OS       2 C5MP        -0.498900
    42 C5'        2.156035     2.551837     2.019887 CI       2 C5MP         0.055800
    43 H5'        1.452687     1.753841     2.257803 H1       2 C5MP         0.067900
    44 H5''       1.604968     3.450028     1.741178 H1       2 C5MP         0.067900
    45 C4'        3.008252     2.847921     3.243186 CT       2 C5MP         0.106500
    46 H4'        2.447118     3.477373     3.933851 H1       2 C5MP         0.117400
    47 O4'        3.228121     1.605168     3.977231 OS       2 C5MP        -0.354800
    48 C1'        4.558614     1.150950     3.777548 CT       2 C5MP         0.006600
    49 H1'        5.072002     1.095281     4.737461 H2       2 C5MP         0.202900
    50 C2'        5.230443     2.095696     2.779425 CT       2 C5MP         0.067000
    51 H2'        5.668211     2.081313     1.781301 H1       2 C5MP         0.097200
    52 O2'        6.272982     2.049941     3.757136 OH       2 C5MP        -0.613900
    53 HO2'       6.759278     1.235228     3.610987 HO       2 C5MP         0.418600
    54 N1         4.500572    -0.267961     3.326525 N*       2 C5MP        -0.048400
    55 C2         4.701238    -1.262314     4.273234 C        2 C5MP         0.753800
    56 O2         4.918963    -0.927584     5.447181 O        2 C5MP        -0.625200
    57 N3         4.652648    -2.564458     3.883801 NC       2 C5MP        -0.758400
    58 C4         4.416202    -2.880835     2.613801 CA       2 C5MP         0.818500
    59 C5         4.205657    -1.878084     1.616273 C4       2 C5MP        -0.521500
    60 H5         4.010254    -2.111434     0.569628 HA       2 C5MP         0.192800
    61 N4         4.378897    -4.158915     2.285902 N2       2 C5MP        -0.953000
    62 H41        4.532463    -4.836389     3.019078 H        2 C5MP         0.423400
    63 H42        4.201767    -4.434444     1.330491 H        2 C5MP         0.423400
    64 C6         4.258199    -0.582249     2.025726 C4       2 C5MP         0.005300
    65 H6         4.103961     0.202767     1.300219 H4       2 C5MP         0.195800
    66 C3'        4.415606     3.377827     2.961306 CT       2 C5MP         0.202200
    67 H3'        4.412072     3.941489     2.028369 H1       2 C5MP         0.061500
    68 O3'        5.029898     4.128649     3.998279 OS       2 C5MP        -0.524600
    69 P          2.314489     1.776673    -0.478436 P        3 G5MP         1.166200
    70 OP1        1.933410     3.073374    -1.081549 O2       3 G5MP        -0.776000
    71 OP2        3.156547     0.871841    -1.292450 O2       3 G5MP        -0.776000
    72 OP3        1.049659     1.027044    -0.180200 OH       3 G5MP        -0.621000
    73 HOP3       0.576795     0.814885    -1.036107 HO       3 G5MP         0.312900
    74 O5'        2.994369     2.142475     0.922974 OS       3 G5MP        -0.498900
    75 C5'        2.156035     2.551837     2.019887 CI       3 G5MP         0.055800
    76 H5'        1.452687     1.753841     2.257803 H1       3 G5MP         0.067900
    77 H5''       1.604968     3.450028     1.741178 H1       3 G5MP         0.067900
    78 C4'        3.008252     2.847921     3.243186 CT       3 G5MP         0.106500
    79 H4'        2.447118     3.477373     3.933851 H1       3 G5MP         0.117400
    80 O4'        3.228121     1.605168     3.977231 OS       3 G5MP        -0.354800
    81 C1'        4.558614     1.150950     3.777548 CT       3 G5MP         0.019100
    82 H1'        5.072002     1.095281     4.737461 H2       3 G5MP         0.200600
    83 C2'        5.230443     2.095696     2.779425 CT       3 G5MP         0.067000
    84 H2'        5.668211     2.081313     1.781301 H1       3 G5MP         0.097200
    85 O2'        6.272982     2.049941     3.757136 OH       3 G5MP        -0.613900
    86 HO2'       6.759278     1.235228     3.610987 HO       3 G5MP         0.418600
    87 N9         4.499533    -0.267934     3.326576 N*       3 G5MP         0.049200
    88 C4         4.673998    -1.376548     4.117501 CB       3 G5MP         0.122200
    89 C5         4.535095    -2.474583     3.310330 CB       3 G5MP         0.174400
    90 C6         4.665031    -3.772051     3.872552 C        3 G5MP         0.477000
    91 O6         4.578059    -4.865457     3.315956 O        3 G5MP        -0.559700
    92 N1         4.925924    -3.709096     5.246587 NA       3 G5MP        -0.478700
    93 H1         5.032526    -4.575560     5.734311 H        3 G5MP         0.342400
    94 C2         5.047712    -2.547461     5.981551 CA       3 G5MP         0.765700
    95 N2         5.299265    -2.702442     7.288571 N2       3 G5MP        -0.967200
    96 H21        5.396738    -3.573950     7.789643 H        3 G5MP         0.436400
    97 H22        5.381214    -1.857324     7.835527 H        3 G5MP         0.436400
    98 N7         4.278741    -2.081203     2.002035 NB       3 G5MP        -0.570900
    99 N3         4.927829    -1.332945     5.452892 NC       3 G5MP        -0.632300
   100 C8         4.267504    -0.772686     2.063331 CP       3 G5MP         0.137400
   101 H8         4.096308    -0.099877     1.236033 H5       3 G5MP         0.164000
   102 C3'        4.415606     3.377827     2.961306 CT       3 G5MP         0.202200
   103 H3'        4.412072     3.941489     2.028369 H1       3 G5MP         0.061500
   104 O3'        5.029898     4.128649     3.998279 OS       3 G5MP        -0.524600
   105 P          2.314489     1.776673    -0.478436 P        4 U5MP         1.166200
   106 OP1        1.933410     3.073374    -1.081549 O2       4 U5MP        -0.776000
   107 OP2        3.156547     0.871841    -1.292450 O2       4 U5MP        -0.776000
   108 OP3        1.049659     1.027044    -0.180200 OH       4 U5MP        -0.621000
   109 HOP3       0.576795     0.814885    -1.036107 HO       4 U5MP         0.312900
   110 O5'        2.994369     2.142475     0.922974 OS       4 U5MP        -0.498900
   111 C5'        2.156035     2.551837     2.019887 CI       4 U5MP         0.055800
   112 H5'        1.452687     1.753841     2.257803 H1       4 U5MP         0.067900
   113 H5''       1.604968     3.450028     1.741178 H1       4 U5MP         0.067900
   114 C4'        3.008252     2.847921     3.243186 CT       4 U5MP         0.106500
   115 H4'        2.447118     3.477373     3.933851 H1       4 U5MP         0.117400
   116 O4'        3.228121     1.605168     3.977231 OS       4 U5MP        -0.354800
   117 C1'        4.558614     1.150950     3.777548 CT       4 U5MP         0.067400
   118 H1'        5.072002     1.095281     4.737461 H2       4 U5MP         0.182400
   119 C2'        5.230443     2.095696     2.779425 CT       4 U5MP         0.067000
   120 H2'        5.668211     2.081313     1.781301 H1       4 U5MP         0.097200
   121 O2'        6.272982     2.049941     3.757136 OH       4 U5MP        -0.613900
   122 HO2'       6.759278     1.235228     3.610987 HO       4 U5MP         0.418600
   123 N1         4.538757    -0.306565     3.312624 N*       4 U5MP         0.041800
   124 C2         4.814724    -1.223882     4.292304 C        4 U5MP         0.468700
   125 O2         5.014668    -0.915001     5.455495 O        4 U5MP        -0.547700
   126 N3         4.852825    -2.538493     3.874277 NA       4 U5MP        -0.354900
   127 H3         5.070434    -3.289149     4.634055 H        4 U5MP         0.315400
   128 C4         4.642747    -2.996990     2.589735 C        4 U5MP         0.595200
   129 O4         4.702951    -4.199184     2.336743 O        4 U5MP        -0.576100
   130 C5         4.360319    -1.957589     1.633974 CS       4 U5MP        -0.363500
   131 H5         4.180695    -2.226406     0.593026 HA       4 U5MP         0.181100
   132 C6         4.316907    -0.672508     2.011175 CS       4 U5MP        -0.112600
   133 H6         4.145435     0.083636     1.259348 H4       4 U5MP         0.218800
   134 C3'        4.415606     3.377827     2.961306 CT       4 U5MP         0.202200
   135 H3'        4.412072     3.941489     2.028369 H1       4 U5MP         0.061500
   136 O3'        5.029898     4.128649     3.998279 OS       4 U5MP        -0.524600
@<TRIPOS>BOND
     1      1      2 1
     2      1      3 1
     3      1      4 1
     4      1      6 1
     5      4      5 1
     6      6      7 1
     7      7      8 1
     8      7      9 1
     9      7     10 1
    10     10     11 1
    11     10     12 1
    12     10     33 1
    13     12     13 1
    14     13     14 1
    15     13     15 1
    16     13     19 1
    17     15     16 1
    18     15     17 1
    19     15     33 1
    20     17     18 1
    21     19     20 1
    22     19     31 1
    23     20     21 1
    24     20     30 1
    25     21     22 1
    26     21     29 1
    27     22     23 1
    28     22     26 1
    29     23     24 1
    30     24     25 1
    31     24     30 1
    32     26     27 1
    33     26     28 1
    34     29     31 1
    35     31     32 1
    36     33     34 1
    37     33     35 1
    38     36     37 1
    39     36     38 1
    40     36     39 1
    41     36     41 1
    42     39     40 1
    43     41     42 1
    44     42     43 1
    45     42     44 1
    46     42     45 1
    47     45     46 1
    48     45     47 1
    49     45     66 1
    50     47     48 1
    51     48     49 1
    52     48     50 1
    53     48     54 1
    54     50     51 1
    55     50     52 1
    56     50     66 1
    57     52     53 1
    58     54     55 1
    59     54     64 1
    60     55     56 1
    61     55     57 1
    62     57     58 1
    63     58     59 1
    64     58     61 1
    65     59     60 1
    66     59     64 1
    67     61     62 1
    68     61     63 1
    69     64     65 1
    70     66     67 1
    71     66     68 1
    72     69     70 1
    73     69     71 1
    74     69     72 1
    75     69     74 1
    76     72     73 1
    77     74     75 1
    78     75     76 1
    79     75     77 1
    80     75     78 1
    81     78     79 1
    82     78     80 1
    83     78    102 1
    84     80     81 1
    85     81     82 1
    86     81     83 1
    87     81     87 1
    88     83     84 1
    89     83     85 1
    90     83    102 1
    91     85     86 1
    92     87     88 1
    93     87    100 1
    94     88     89 1
    95     88     99 1
    96     89     90 1
    97     89     98 1
    98     90     91 1
    99     90     92 1
   100     92     93 1
   101     92     94 1
   102     94     95 1
   103     94     99 1
   104     95     96 1
   105     95     97 1
   106     98    100 1
   107    100    101 1
   108    102    103 1
   109    102    104 1
   110    105    106 1
   111    105    107 1
   112    105    108 1
   113    105    110 1
   114    108    109 1
   115    110    111 1
   116    111    112 1
   117    111    113 1
   118    111    114 1
   119    114    115 1
   120    114    116 1
   121    114    134 1
   122    116    117 1
   123    117    118 1
   124    117    119 1
   125    117    123 1
   126    119    120 1
   127    119    121 1
   128    119    134 1
   129    121    122 1
   130    123    124 1
   131    123    132 1
   132    124    125 1
   133    124    126 1
   134    126    127 1
   135    126    128 1
   136    128    129 1
   137    128    130 1
   138    130    131 1
   139    130    132 1
   140    132    133 1
   141    134    135 1
   142    134    136 1
@<TRIPOS>SUBSTRUCTURE
     1 A5MP          1 ****               0 ****  ****
     2 C5MP         36 ****               0 ****  ****
     3 G5MP         69 ****               0 ****  ****
     4 U5MP        105 ****               0 ****  ****
