@<TRIPOS>MOLECULE
TERMINAL_MONOPHOSPHATE
   271    283      8 0 1
SMALL
USER_CHARGES
@<TRIPOS>ATOM
     1 P          2.314489     1.776673    -0.478436 P        1 A5MP         1.166200
     2 OP1        1.933410     3.073374    -1.081549 O2       1 A5MP        -0.776000
     3 OP2        3.156547     0.871841    -1.292450 O2       1 A5MP        -0.776000
     4 OP3        1.049659     1.027044    -0.180200 OH       1 A5MP        -0.621000
     5 HOP3       0.576795     0.814885    -1.036107 HO       1 A5MP         0.312900
     6 O5'        2.994369     2.142475     0.922974 OS       1 A5MP        -0.498900
     7 C5'        2.156035     2.551837     2.019887 CI       1 A5MP         0.055800
     8 H5'        1.452687     1.753841     2.257803 H1       1 A5MP         0.067900
     9 H5''       1.604968     3.450028     1.741178 H1       1 A5MP         0.067900
    10 C4'        3.008252     2.847921     3.243186 CT       1 A5MP         0.106500
    11 H4'        2.447118     3.477373     3.933851 H1       1 A5MP         0.117400
    12 O4'        3.228121     1.605168     3.977231 OS       1 A5MP        -0.354800
    13 C1'        4.558614     1.150950     3.777548 CT       1 A5MP         0.039400
    14 H1'        5.072002     1.095281     4.737461 H2       1 A5MP         0.200700
    15 C2'        5.230443     2.095696     2.779425 CT       1 A5MP         0.067000
    16 H2'        5.668211     2.081313     1.781301 H1       1 A5MP         0.097200
    17 O2'        6.272982     2.049941     3.757136 OH       1 A5MP        -0.613900
    18 HO2'       6.759278     1.235228     3.610987 HO       1 A5MP         0.418600
    19 N9         4.538887    -0.297039     3.315663 N*       1 A5MP        -0.025100
    20 C4         4.806144    -1.356352     4.133219 CB       1 A5MP         0.305300
    21 C5         4.754063    -2.480044     3.363010 CB       1 A5MP         0.051500
    22 C6         4.998001    -3.708197     3.989216 CA       1 A5MP         0.700900
    23 N1         5.265303    -3.689337     5.302150 NC       1 A5MP        -0.761500
    24 C2         5.284983    -2.519871     5.935286 CQ       1 A5MP         0.587500
    25 H2         5.498276    -2.482153     6.993342 H5       1 A5MP         0.047300
    26 N6         4.976786    -4.883494     3.345922 N2       1 A5MP        -0.901900
    27 H61        5.160722    -5.738815     3.850595 H        1 A5MP         0.411500
    28 H62        4.776859    -4.914033     2.356379 H        1 A5MP         0.411500
    29 N7         4.452865    -2.140973     2.049081 NB       1 A5MP        -0.607300
    30 N3         5.072691    -1.308506     5.455779 NC       1 A5MP        -0.699700
    31 C8         4.336753    -0.846471     2.077048 C5       1 A5MP         0.200600
    32 H8         4.152405    -0.207228     1.226292 H5       1 A5MP         0.155300
    33 C3'        4.415606     3.377827     2.961306 CT       1 A5MP         0.202200
    34 H3'        4.412072     3.941489     2.028369 H1       1 A5MP         0.061500
    35 O3'        5.029898     4.128649     3.998279 OS       1 A5MP        -0.524600
    36 P          2.314489     1.776673    -0.478436 P        2 C5MP         1.166200
    37 OP1        1.933410     3.073374    -1.081549 O2       2 C5MP        -0.776000
    38 OP2        3.156547     0.871841    -1.292450 O2       2 C5MP        -0.776000
    39 OP3        1.049659     1.027044    -0.180200 OH       2 C5MP        -0.621000
    40 HOP3       0.576795     0.814885    -1.036107 HO       2 C5MP         0.312900
    41 O5'        2.994369     2.142475     0.922974 OS       2 C5MP        -0.498900
    42 C5'        2.156035     2.551837     2.019887 CI       2 C5MP         0.055800
    43 H5'        1.452687     1.753841     2.257803 H1       2 C5MP         0.067900
    44 H5''       1.604968     3.450028     1.741178 H1       2 C5MP         0.067900
    45 C4'        3.008252     2.847921     3.243186 CT       2 C5MP         0.106500
    46 H4'        2.447118     3.477373     3.933851 H1       2 C5MP         0.117400
    47 O4'        3.228121     1.605168     3.977231 OS       2 C5MP        -0.354800
    48 C1'        4.558614     1.150950     3.777548 CT       2 C5MP         0.006600
    49 H1'        5.072002     1.095281     4.737461 H2       2 C5MP         0.202900
    50 C2'        5.230443     2.095696     2.779425 CT       2 C5MP         0.067000
    51 H2'        5.668211     2.081313     1.781301 H1       2 C5MP         0.097200
    52 O2'        6.272982     2.049941     3.757136 OH       2 C5MP        -0.613900
    53 HO2'       6.759278     1.235228     3.610987 HO       2 C5MP         0.418600
    54 N1         4.500572    -0.267961     3.326525 N*       2 C5MP        -0.048400
    55 C2         4.701238    -1.262314     4.273234 C        2 C5MP         0.753800
    56 O2         4.918963    -0.927584     5.447181 O        2 C5MP        -0.625200
    57 N3         4.652648    -2.564458     3.883801 NC       2 C5MP        -0.758400
    58 C4         4.416202    -2.880835     2.613801 CA       2 C5MP         0.818500
    59 C5         4.205657    -1.878084     1.616273 C4       2 C5MP        -0.521500
    60 H5         4.010254    -2.111434     0.569628 HA       2 C5MP         0.192800
    61 N4         4.378897    -4.158915     2.285902 N2       2 C5MP        -0.953000
    62 H41        4.532463    -4.836389     3.019078 H        2 C5MP         0.423400
    63 H42        4.201767    -4.434444     1.330491 H        2 C5MP         0.423400
    64 C6         4.258199    -0.582249     2.025726 C4       2 C5MP         0.005300
    65 H6         4.103961     0.202767     1.300219 H4       2 C5MP         0.195800
    66 C3'        4.415606     3.377827     2.961306 CT       2 C5MP         0.202200
    67 H3'        4.412072     3.941489     2.028369 H1       2 C5MP         0.061500
    68 O3'        5.029898     4.128649     3.998279 OS       2 C5MP        -0.524600
    69 P          2.314489     1.776673    -0.478436 P        3 DA5MP        1.166100
    70 OP1        1.933410     3.073374    -1.081549 O2       3 DA5MP       -0.776100
    71 OP2        3.156547     0.871841    -1.292450 O2       3 DA5MP       -0.776100
    72 OP3        1.049659     1.027044    -0.180200 OH       3 DA5MP       -0.621000
    73 HOP3       0.576795     0.814885    -1.036107 HO       3 DA5MP        0.312900
    74 O5'        2.994369     2.142475     0.922974 OS       3 DA5MP       -0.495400
    75 C5'        2.156035     2.551837     2.019887 CJ       3 DA5MP       -0.006900
    76 H5'        1.452687     1.753841     2.257803 H1       3 DA5MP        0.075400
    77 H5''       1.604968     3.450028     1.741178 H1       3 DA5MP        0.075400
    78 C4'        3.008252     2.847921     3.243186 CT       3 DA5MP        0.162900
    79 H4'        2.447118     3.477373     3.933851 H1       3 DA5MP        0.117600
    80 O4'        3.228121     1.605168     3.977231 OS       3 DA5MP       -0.369100
    81 C1'        4.558614     1.150950     3.777548 CT       3 DA5MP        0.043100
    82 H1'        5.072002     1.095281     4.737461 H2       3 DA5MP        0.183800
    83 C2'        5.230443     2.095696     2.779425 CT       3 DA5MP       -0.085400
    84 H2'        5.668211     2.081313     1.781301 HC       3 DA5MP        0.071800
    85 H2''       6.025106     2.060820     3.524673 HC       3 DA5MP        0.071800
    86 N9         4.538887    -0.297039     3.315663 N*       3 DA5MP       -0.026800
    87 C4         4.806144    -1.356352     4.133219 CB       3 DA5MP        0.380000
    88 C5         4.754063    -2.480044     3.363010 CB       3 DA5MP        0.072500
    89 C6         4.998001    -3.708197     3.989216 CA       3 DA5MP        0.689700
    90 N1         5.265303    -3.689337     5.302150 NC       3 DA5MP       -0.762400
    91 C2         5.284983    -2.519871     5.935286 CQ       3 DA5MP        0.571600
    92 H2         5.498276    -2.482153     6.993342 H5       3 DA5MP        0.059800
    93 N6         4.976786    -4.883494     3.345922 N2       3 DA5MP       -0.912300
    94 H61        5.160722    -5.738815     3.850595 H        3 DA5MP        0.416700
    95 H62        4.776859    -4.914033     2.356379 H        3 DA5MP        0.416700
    96 N7         4.452865    -2.140973     2.049081 NB       3 DA5MP       -0.617500
    97 N3         5.072691    -1.308506     5.455779 NC       3 DA5MP       -0.741700
    98 C8         4.336753    -0.846471     2.077048 C2       3 DA5MP        0.160700
    99 H8         4.152405    -0.207228     1.226292 H5       3 DA5MP        0.187700
   100 C3'        4.415606     3.377827     2.961306 C7       3 DA5MP        0.071300
   101 H3'        4.412072     3.941489     2.028369 H1       3 DA5MP        0.098500
   102 O3'        5.029898     4.128649     3.998279 OS       3 DA5MP       -0.523200
   103 P          2.314489     1.776673    -0.478436 P        4 DC5MP        1.166100
   104 OP1        1.933410     3.073374    -1.081549 O2       4 DC5MP       -0.776100
   105 OP2        3.156547     0.871841    -1.292450 O2       4 DC5MP       -0.776100
   106 OP3        1.049659     1.027044    -0.180200 OH       4 DC5MP       -0.621000
   107 HOP3       0.576795     0.814885    -1.036107 HO       4 DC5MP        0.312900
   108 O5'        2.994369     2.142475     0.922974 OS       4 DC5MP       -0.495400
   109 C5'        2.156035     2.551837     2.019887 CJ       4 DC5MP       -0.006900
   110 H5'        1.452687     1.753841     2.257803 H1       4 DC5MP        0.075400
   111 H5''       1.604968     3.450028     1.741178 H1       4 DC5MP        0.075400
   112 C4'        3.008252     2.847921     3.243186 CT       4 DC5MP        0.162900
   113 H4'        2.447118     3.477373     3.933851 H1       4 DC5MP        0.117600
   114 O4'        3.228121     1.605168     3.977231 OS       4 DC5MP       -0.369100
   115 C1'        4.558614     1.150950     3.777548 CT       4 DC5MP       -0.011600
   116 H1'        5.072002     1.095281     4.737461 H2       4 DC5MP        0.196300
   117 C2'        5.230443     2.095696     2.779425 CT       4 DC5MP       -0.085400
   118 H2'        5.668211     2.081313     1.781301 HC       4 DC5MP        0.071800
   119 H2''       6.025106     2.060820     3.524673 HC       4 DC5MP        0.071800
   120 N1         4.500572    -0.267961     3.326525 N*       4 DC5MP       -0.033900
   121 C2         4.701238    -1.262314     4.273234 C        4 DC5MP        0.795900
   122 O2         4.918963    -0.927584     5.447181 O        4 DC5MP       -0.654800
   123 N3         4.652648    -2.564458     3.883801 NC       4 DC5MP       -0.774800
   124 C4         4.416202    -2.880835     2.613801 CA       4 DC5MP        0.843900
   125 C5         4.205657    -1.878084     1.616273 C1       4 DC5MP       -0.522200
   126 H5         4.010254    -2.111434     0.569628 HA       4 DC5MP        0.186300
   127 N4         4.378897    -4.158915     2.285902 N2       4 DC5MP       -0.977300
   128 H41        4.532463    -4.836389     3.019078 H        4 DC5MP        0.431400
   129 H42        4.201767    -4.434444     1.330491 H        4 DC5MP        0.431400
   130 C6         4.258199    -0.582249     2.025726 C1       4 DC5MP       -0.018300
   131 H6         4.103961     0.202767     1.300219 H4       4 DC5MP        0.229300
   132 C3'        4.415606     3.377827     2.961306 C7       4 DC5MP        0.071300
   133 H3'        4.412072     3.941489     2.028369 H1       4 DC5MP        0.098500
   134 O3'        5.029898     4.128649     3.998279 OS       4 DC5MP       -0.523200
   135 P          2.314489     1.776673    -0.478436 P        5 DG5MP        1.166100
   136 OP1        1.933410     3.073374    -1.081549 O2       5 DG5MP       -0.776100
   137 OP2        3.156547     0.871841    -1.292450 O2       5 DG5MP       -0.776100
   138 OP3        1.049659     1.027044    -0.180200 OH       5 DG5MP       -0.621000
   139 HOP3       0.576795     0.814885    -1.036107 HO       5 DG5MP        0.312900
   140 O5'        2.994369     2.142475     0.922974 OS       5 DG5MP       -0.495400
   141 C5'        2.156035     2.551837     2.019887 CJ       5 DG5MP       -0.006900
   142 H5'        1.452687     1.753841     2.257803 H1       5 DG5MP        0.075400
   143 H5''       1.604968     3.450028     1.741178 H1       5 DG5MP        0.075400
   144 C4'        3.008252     2.847921     3.243186 CT       5 DG5MP        0.162900
   145 H4'        2.447118     3.477373     3.933851 H1       5 DG5MP        0.117600
   146 O4'        3.228121     1.605168     3.977231 OS       5 DG5MP       -0.369100
   147 C1'        4.558614     1.150950     3.777548 CT       5 DG5MP        0.035800
   148 H1'        5.072002     1.095281     4.737461 H2       5 DG5MP        0.174600
   149 C2'        5.230443     2.095696     2.779425 CT       5 DG5MP       -0.085400
   150 H2'        5.668211     2.081313     1.781301 HC       5 DG5MP        0.071800
   151 H2''       6.025106     2.060820     3.524673 HC       5 DG5MP        0.071800
   152 N9         4.499533    -0.267934     3.326576 N*       5 DG5MP        0.057700
   153 C4         4.673998    -1.376548     4.117501 CB       5 DG5MP        0.181400
   154 C5         4.535095    -2.474583     3.310330 CB       5 DG5MP        0.199100
   155 C6         4.665031    -3.772051     3.872552 C        5 DG5MP        0.491800
   156 O6         4.578059    -4.865457     3.315956 O        5 DG5MP       -0.569900
   157 N1         4.925924    -3.709096     5.246587 NA       5 DG5MP       -0.505300
   158 H1         5.032526    -4.575560     5.734311 H        5 DG5MP        0.352000
   159 C2         5.047712    -2.547461     5.981551 CA       5 DG5MP        0.743200
   160 N2         5.299265    -2.702442     7.288571 N2       5 DG5MP       -0.923000
   161 H21        5.396738    -3.573950     7.789643 H        5 DG5MP        0.423500
   162 H22        5.381214    -1.857324     7.835527 H        5 DG5MP        0.423500
   163 N7         4.278741    -2.081203     2.002035 NB       5 DG5MP       -0.572500
   164 N3         4.927829    -1.332945     5.452892 NC       5 DG5MP       -0.663600
   165 C8         4.267504    -0.772686     2.063331 CK       5 DG5MP        0.073600
   166 H8         4.096308    -0.099877     1.236033 H5       5 DG5MP        0.199700
   167 C3'        4.415606     3.377827     2.961306 C7       5 DG5MP        0.071300
   168 H3'        4.412072     3.941489     2.028369 H1       5 DG5MP        0.098500
   169 O3'        5.029898     4.128649     3.998279 OS       5 DG5MP       -0.523200
   170 P          2.314489     1.776673    -0.478436 P        6 DT5MP        1.166100
   171 OP1        1.933410     3.073374    -1.081549 O2       6 DT5MP       -0.776100
   172 OP2        3.156547     0.871841    -1.292450 O2       6 DT5MP       -0.776100
   173 OP3        1.049659     1.027044    -0.180200 OH       6 DT5MP       -0.621000
   174 HOP3       0.576795     0.814885    -1.036107 HO       6 DT5MP        0.312900
   175 O5'        2.994369     2.142475     0.922974 OS       6 DT5MP       -0.495400
   176 C5'        2.156035     2.551837     2.019887 CJ       6 DT5MP       -0.006900
   177 H5'        1.452687     1.753841     2.257803 H1       6 DT5MP        0.075400
   178 H5''       1.604968     3.450028     1.741178 H1       6 DT5MP        0.075400
   179 C4'        3.008252     2.847921     3.243186 CT       6 DT5MP        0.162900
   180 H4'        2.447118     3.477373     3.933851 H1       6 DT5MP        0.117600
   181 O4'        3.228121     1.605168     3.977231 OS       6 DT5MP       -0.369100
   182 C1'        4.558614     1.150950     3.777548 CT       6 DT5MP        0.068000
   183 H1'        5.072002     1.095281     4.737461 H2       6 DT5MP        0.180400
   184 C2'        5.230443     2.095696     2.779425 CT       6 DT5MP       -0.085400
   185 H2'        5.668211     2.081313     1.781301 HC       6 DT5MP        0.071800
   186 H2''       6.025106     2.060820     3.524673 HC       6 DT5MP        0.071800
   187 N1         4.538757    -0.306565     3.312624 N*       6 DT5MP       -0.023900
   188 C2         4.814724    -1.223882     4.292304 C        6 DT5MP        0.567700
   189 O2         5.014668    -0.915001     5.455495 O        6 DT5MP       -0.588100
   190 N3         4.852825    -2.538493     3.874277 NA       6 DT5MP       -0.434000
   191 H3         5.070434    -3.289149     4.634055 H        6 DT5MP        0.342000
   192 C4         4.642747    -2.996990     2.589735 C        6 DT5MP        0.519400
   193 O4         4.702951    -4.199184     2.336743 O        6 DT5MP       -0.556300
   194 C5         4.360319    -1.957589     1.633974 CM       6 DT5MP        0.002500
   195 C7         4.118886    -2.368545     0.211713 CT       6 DT5MP       -0.226900
   196 H71        4.859541    -1.896829    -0.434053 HC       6 DT5MP        0.077000
   197 H72        4.201276    -3.452127     0.127085 HC       6 DT5MP        0.077000
   198 H73        3.120150    -2.055730    -0.092873 HC       6 DT5MP        0.077000
   199 C6         4.316907    -0.672508     2.011175 CM       6 DT5MP       -0.220900
   200 H6         4.145435     0.083636     1.259348 H4       6 DT5MP        0.260700
   201 C3'        4.415606     3.377827     2.961306 C7       6 DT5MP        0.071300
   202 H3'        4.412072     3.941489     2.028369 H1       6 DT5MP        0.098500
   203 O3'        5.029898     4.128649     3.998279 OS       6 DT5MP       -0.523200
   204 P          2.314489     1.776673    -0.478436 P        7 G5MP         1.166200
   205 OP1        1.933410     3.073374    -1.081549 O2       7 G5MP        -0.776000
   206 OP2        3.156547     0.871841    -1.292450 O2       7 G5MP        -0.776000
   207 OP3        1.049659     1.027044    -0.180200 OH       7 G5MP        -0.621000
   208 HOP3       0.576795     0.814885    -1.036107 HO       7 G5MP         0.312900
   209 O5'        2.994369     2.142475     0.922974 OS       7 G5MP        -0.498900
   210 C5'        2.156035     2.551837     2.019887 CI       7 G5MP         0.055800
   211 H5'        1.452687     1.753841     2.257803 H1       7 G5MP         0.067900
   212 H5''       1.604968     3.450028     1.741178 H1       7 G5MP         0.067900
   213 C4'        3.008252     2.847921     3.243186 CT       7 G5MP         0.106500
   214 H4'        2.447118     3.477373     3.933851 H1       7 G5MP         0.117400
   215 O4'        3.228121     1.605168     3.977231 OS       7 G5MP        -0.354800
   216 C1'        4.558614     1.150950     3.777548 CT       7 G5MP         0.019100
   217 H1'        5.072002     1.095281     4.737461 H2       7 G5MP         0.200600
   218 C2'        5.230443     2.095696     2.779425 CT       7 G5MP         0.067000
   219 H2'        5.668211     2.081313     1.781301 H1       7 G5MP         0.097200
   220 O2'        6.272982     2.049941     3.757136 OH       7 G5MP        -0.613900
   221 HO2'       6.759278     1.235228     3.610987 HO       7 G5MP         0.418600
   222 N9         4.499533    -0.267934     3.326576 N*       7 G5MP         0.049200
   223 C4         4.673998    -1.376548     4.117501 CB       7 G5MP         0.122200
   224 C5         4.535095    -2.474583     3.310330 CB       7 G5MP         0.174400
   225 C6         4.665031    -3.772051     3.872552 C        7 G5MP         0.477000
   226 O6         4.578059    -4.865457     3.315956 O        7 G5MP        -0.559700
   227 N1         4.925924    -3.709096     5.246587 NA       7 G5MP        -0.478700
   228 H1         5.032526    -4.575560     5.734311 H        7 G5MP         0.342400
   229 C2         5.047712    -2.547461     5.981551 CA       7 G5MP         0.765700
   230 N2         5.299265    -2.702442     7.288571 N2       7 G5MP        -0.967200
   231 H21        5.396738    -3.573950     7.789643 H        7 G5MP         0.436400
   232 H22        5.381214    -1.857324     7.835527 H        7 G5MP         0.436400
   233 N7         4.278741    -2.081203     2.002035 NB       7 G5MP        -0.570900
   234 N3         4.927829    -1.332945     5.452892 NC       7 G5MP        -0.632300
   235 C8         4.267504    -0.772686     2.063331 CP       7 G5MP         0.137400
   236 H8         4.096308    -0.099877     1.236033 H5       7 G5MP         0.164000
   237 C3'        4.415606     3.377827     2.961306 CT       7 G5MP         0.202200
   238 H3'        4.412072     3.941489     2.028369 H1       7 G5MP         0.061500
   239 O3'        5.029898     4.128649     3.998279 OS       7 G5MP        -0.524600
   240 P          2.314489     1.776673    -0.478436 P        8 U5MP         1.166200
   241 OP1        1.933410     3.073374    -1.081549 O2       8 U5MP        -0.776000
   242 OP2        3.156547     0.871841    -1.292450 O2       8 U5MP        -0.776000
   243 OP3        1.049659     1.027044    -0.180200 OH       8 U5MP        -0.621000
   244 HOP3       0.576795     0.814885    -1.036107 HO       8 U5MP         0.312900
   245 O5'        2.994369     2.142475     0.922974 OS       8 U5MP        -0.498900
   246 C5'        2.156035     2.551837     2.019887 CI       8 U5MP         0.055800
   247 H5'        1.452687     1.753841     2.257803 H1       8 U5MP         0.067900
   248 H5''       1.604968     3.450028     1.741178 H1       8 U5MP         0.067900
   249 C4'        3.008252     2.847921     3.243186 CT       8 U5MP         0.106500
   250 H4'        2.447118     3.477373     3.933851 H1       8 U5MP         0.117400
   251 O4'        3.228121     1.605168     3.977231 OS       8 U5MP        -0.354800
   252 C1'        4.558614     1.150950     3.777548 CT       8 U5MP         0.067400
   253 H1'        5.072002     1.095281     4.737461 H2       8 U5MP         0.182400
   254 C2'        5.230443     2.095696     2.779425 CT       8 U5MP         0.067000
   255 H2'        5.668211     2.081313     1.781301 H1       8 U5MP         0.097200
   256 O2'        6.272982     2.049941     3.757136 OH       8 U5MP        -0.613900
   257 HO2'       6.759278     1.235228     3.610987 HO       8 U5MP         0.418600
   258 N1         4.538757    -0.306565     3.312624 N*       8 U5MP         0.041800
   259 C2         4.814724    -1.223882     4.292304 C        8 U5MP         0.468700
   260 O2         5.014668    -0.915001     5.455495 O        8 U5MP        -0.547700
   261 N3         4.852825    -2.538493     3.874277 NA       8 U5MP        -0.354900
   262 H3         5.070434    -3.289149     4.634055 H        8 U5MP         0.315400
   263 C4         4.642747    -2.996990     2.589735 C        8 U5MP         0.595200
   264 O4         4.702951    -4.199184     2.336743 O        8 U5MP        -0.576100
   265 C5         4.360319    -1.957589     1.633974 CS       8 U5MP        -0.363500
   266 H5         4.180695    -2.226406     0.593026 HA       8 U5MP         0.181100
   267 C6         4.316907    -0.672508     2.011175 CS       8 U5MP        -0.112600
   268 H6         4.145435     0.083636     1.259348 H4       8 U5MP         0.218800
   269 C3'        4.415606     3.377827     2.961306 CT       8 U5MP         0.202200
   270 H3'        4.412072     3.941489     2.028369 H1       8 U5MP         0.061500
   271 O3'        5.029898     4.128649     3.998279 OS       8 U5MP        -0.524600
@<TRIPOS>BOND
     1      1      2 1
     2      1      3 1
     3      1      4 1
     4      1      6 1
     5      4      5 1
     6      6      7 1
     7      7      8 1
     8      7      9 1
     9      7     10 1
    10     10     11 1
    11     10     12 1
    12     10     33 1
    13     12     13 1
    14     13     14 1
    15     13     15 1
    16     13     19 1
    17     15     16 1
    18     15     17 1
    19     15     33 1
    20     17     18 1
    21     19     20 1
    22     19     31 1
    23     20     21 1
    24     20     30 1
    25     21     22 1
    26     21     29 1
    27     22     23 1
    28     22     26 1
    29     23     24 1
    30     24     25 1
    31     24     30 1
    32     26     27 1
    33     26     28 1
    34     29     31 1
    35     31     32 1
    36     33     34 1
    37     33     35 1
    38     36     37 1
    39     36     38 1
    40     36     39 1
    41     36     41 1
    42     39     40 1
    43     41     42 1
    44     42     43 1
    45     42     44 1
    46     42     45 1
    47     45     46 1
    48     45     47 1
    49     45     66 1
    50     47     48 1
    51     48     49 1
    52     48     50 1
    53     48     54 1
    54     50     51 1
    55     50     52 1
    56     50     66 1
    57     52     53 1
    58     54     55 1
    59     54     64 1
    60     55     56 1
    61     55     57 1
    62     57     58 1
    63     58     59 1
    64     58     61 1
    65     59     60 1
    66     59     64 1
    67     61     62 1
    68     61     63 1
    69     64     65 1
    70     66     67 1
    71     66     68 1
    72     69     70 1
    73     69     71 1
    74     69     72 1
    75     69     74 1
    76     72     73 1
    77     74     75 1
    78     75     76 1
    79     75     77 1
    80     75     78 1
    81     78     79 1
    82     78     80 1
    83     78    100 1
    84     80     81 1
    85     81     82 1
    86     81     83 1
    87     81     86 1
    88     83     84 1
    89     83     85 1
    90     83    100 1
    91     86     87 1
    92     86     98 1
    93     87     88 1
    94     87     97 1
    95     88     89 1
    96     88     96 1
    97     89     90 1
    98     89     93 1
    99     90     91 1
   100     91     92 1
   101     91     97 1
   102     93     94 1
   103     93     95 1
   104     96     98 1
   105     98     99 1
   106    100    101 1
   107    100    102 1
   108    103    104 1
   109    103    105 1
   110    103    106 1
   111    103    108 1
   112    106    107 1
   113    108    109 1
   114    109    110 1
   115    109    111 1
   116    109    112 1
   117    112    113 1
   118    112    114 1
   119    112    132 1
   120    114    115 1
   121    115    116 1
   122    115    117 1
   123    115    120 1
   124    117    118 1
   125    117    119 1
   126    117    132 1
   127    120    121 1
   128    120    130 1
   129    121    122 1
   130    121    123 1
   131    123    124 1
   132    124    125 1
   133    124    127 1
   134    125    126 1
   135    125    130 1
   136    127    128 1
   137    127    129 1
   138    130    131 1
   139    132    133 1
   140    132    134 1
   141    135    136 1
   142    135    137 1
   143    135    138 1
   144    135    140 1
   145    138    139 1
   146    140    141 1
   147    141    142 1
   148    141    143 1
   149    141    144 1
   150    144    145 1
   151    144    146 1
   152    144    167 1
   153    146    147 1
   154    147    148 1
   155    147    149 1
   156    147    152 1
   157    149    150 1
   158    149    151 1
   159    149    167 1
   160    152    153 1
   161    152    165 1
   162    153    154 1
   163    153    164 1
   164    154    155 1
   165    154    163 1
   166    155    156 1
   167    155    157 1
   168    157    158 1
   169    157    159 1
   170    159    160 1
   171    159    164 1
   172    160    161 1
   173    160    162 1
   174    163    165 1
   175    165    166 1
   176    167    168 1
   177    167    169 1
   178    170    171 1
   179    170    172 1
   180    170    173 1
   181    170    175 1
   182    173    174 1
   183    175    176 1
   184    176    177 1
   185    176    178 1
   186    176    179 1
   187    179    180 1
   188    179    181 1
   189    179    201 1
   190    181    182 1
   191    182    183 1
   192    182    184 1
   193    182    187 1
   194    184    185 1
   195    184    186 1
   196    184    201 1
   197    187    188 1
   198    187    199 1
   199    188    189 1
   200    188    190 1
   201    190    191 1
   202    190    192 1
   203    192    193 1
   204    192    194 1
   205    194    195 1
   206    194    199 1
   207    195    196 1
   208    195    197 1
   209    195    198 1
   210    199    200 1
   211    201    202 1
   212    201    203 1
   213    204    205 1
   214    204    206 1
   215    204    207 1
   216    204    209 1
   217    207    208 1
   218    209    210 1
   219    210    211 1
   220    210    212 1
   221    210    213 1
   222    213    214 1
   223    213    215 1
   224    213    237 1
   225    215    216 1
   226    216    217 1
   227    216    218 1
   228    216    222 1
   229    218    219 1
   230    218    220 1
   231    218    237 1
   232    220    221 1
   233    222    223 1
   234    222    235 1
   235    223    224 1
   236    223    234 1
   237    224    225 1
   238    224    233 1
   239    225    226 1
   240    225    227 1
   241    227    228 1
   242    227    229 1
   243    229    230 1
   244    229    234 1
   245    230    231 1
   246    230    232 1
   247    233    235 1
   248    235    236 1
   249    237    238 1
   250    237    239 1
   251    240    241 1
   252    240    242 1
   253    240    243 1
   254    240    245 1
   255    243    244 1
   256    245    246 1
   257    246    247 1
   258    246    248 1
   259    246    249 1
   260    249    250 1
   261    249    251 1
   262    249    269 1
   263    251    252 1
   264    252    253 1
   265    252    254 1
   266    252    258 1
   267    254    255 1
   268    254    256 1
   269    254    269 1
   270    256    257 1
   271    258    259 1
   272    258    267 1
   273    259    260 1
   274    259    261 1
   275    261    262 1
   276    261    263 1
   277    263    264 1
   278    263    265 1
   279    265    266 1
   280    265    267 1
   281    267    268 1
   282    269    270 1
   283    269    271 1
@<TRIPOS>SUBSTRUCTURE
     1 A5MP          1 ****               0 ****  ****
     2 C5MP         36 ****               0 ****  ****
     3 DA5MP        69 ****               0 ****  ****
     4 DC5MP       103 ****               0 ****  ****
     5 DG5MP       135 ****               0 ****  ****
     6 DT5MP       170 ****               0 ****  ****
     7 G5MP        204 ****               0 ****  ****
     8 U5MP        240 ****               0 ****  ****
